     409
 i =      96, E =    -5186.5879178432
  N         2.9726305781        5.2026571087       16.0159989496
  C         1.6542608164        5.4733422499       16.2837413071
  N        13.7891855628        5.1961219081        5.1961204699
  C        12.4712412378        5.4653273052        5.4653266678
  N        19.6587767071       17.5683816418       16.0120751296
  C        20.9768554827       17.2984848824       16.2823180006
  N         8.8335511161       17.5720778275        5.2071561037
  C        10.1514744465       17.3006900457        5.4753594593
  N        19.6497930370        5.1974592082        6.7539626369
  C        20.9678682197        5.4710411991        6.4871773006
  N         8.8335499196        5.2071568086       17.5720751514
  C        10.1514722060        5.4753550135       17.3006948413
  N         2.9704104982       17.5723087113        6.7593322970
  C         1.6527632918       17.2998021748        6.4894653918
  N        13.7948233052       17.5675687081       17.5675701044
  C        12.4773580128       17.2971519339       17.2971524847
  N        15.9375786800        3.0388910922        5.1961817037
  C        16.2050566210        1.7213689431        5.4689077772
  N        15.9470712781       13.8600835532       16.0100086609
  C        16.2163452575       12.5428501036       16.2799756043
  N        15.9455795732       19.7239349231       17.5666194327
  C        16.2123485611       21.0418587114       17.2943631375
  N        15.9380693596        8.9039692668        6.7518812981
  C        16.2076794500       10.2215126708        6.4825790134
  N         6.6813009429       19.7306712990        5.2062299168
  C         6.4120930084       21.0483885936        5.4774923737
  N         6.6788084156        8.9113081361       16.0100035308
  C         6.4102239404       10.2284419806       16.2811328271
  N         6.6849630691        3.0485013335       17.5729362928
  C         6.4189378701        1.7301805986       17.3011110663
  N         6.6877321864       13.8652942583        6.7564300618
  C         6.4184921078       12.5477908149        6.4887345821
  N         5.1311547535       16.0154257460        3.0467070623
  C         5.4037295262       16.2844184275        1.7291679505
  N         5.1277161697        5.2053032017       13.8630548176
  C         5.3989942648        5.4763236632       12.5460787006
  N        17.5000161959       16.0099408784       19.7246374657
  C        17.2277663215       16.2777766408       21.0423597310
  N        17.4922341307        5.1955525020        8.9043896090
  C        17.2229582177        5.4660621028       10.2217420140
  N         5.1280347060        6.7640006582       19.7298713901
  C         5.3978154242        6.4951179170       21.0479277824
  N         5.1274109406       17.5697594440        8.9108208645
  C         5.3971913049       17.3000079610       10.2281867650
  N        17.4917085232        6.7533727111        3.0397526475
  C        17.2202170512        6.4856469790        1.7219227245
  N        17.5017995976       17.5663621366       13.8600477190
  C        17.2318347323       17.2964651654       12.5426734552
  N         5.1249179808        3.0471649406        6.7641662923
  C         5.3957558750        1.7291852261        6.4954278432
  N         5.1310669063       13.8649988906       17.5745935961
  C         5.3990353441       12.5476755557       17.3025984497
  N        17.4933051577       19.7235895449        6.7541354037
  C        17.2210175995       21.0411755743        6.4859401438
  N        17.4977871369        8.9051864546       17.5671379572
  C        17.2298958359       10.2229321183       17.2967441122
  N         5.1354223284       19.7301346580       16.0164219721
  C         5.4062214035       21.0479665365       16.2850858668
  N         5.1305987322        8.9087724324        5.2138164869
  C         5.4007574899       10.2265235421        5.4812222372
  N        17.4957457893        3.0412323911       16.0083133798
  C        17.2255592648        1.7232777088       16.2769794509
  N        17.4952944093       13.8589483175        5.1990146996
  C        17.2244457864       12.5414872378        5.4678166177
  N         2.9767578506       16.0177109682       17.5741534344
  C         1.6587922043       16.2851026261       17.3012120684
  N        13.7905873840       16.0117211338        6.7569596496
  C        12.4728930873       16.2828051376        6.4885445566
  N        19.6543902926       16.0113992893        5.1987193749
  C        20.9721304134       16.2812568518        5.4712039482
  N         8.8391483669       16.0101317957       16.0101333037
  C        10.1568783414       16.2800983515       16.2800985844
  N        19.6520705594        6.7544221741       17.5685667144
  C        20.9705385635        6.4870109282       17.2977222293
  N         8.8331054709        6.7491841139        6.7491842352
  C        10.1504727203        6.4793598066        6.4793597468
  N         2.9682901885        6.7613407279        5.2051270576
  C         1.6501472280        6.4906082521        5.4745195419
  N        13.7905882526        6.7569628949       16.0117202654
  C        12.4728878956        6.4885456012       16.2828072981
  N        15.9394740189        5.1969848516       19.7224564648
  C        16.2059037593        5.4691297239       21.0404846772
  N        15.9444780295       16.0100800258        8.9064549191
  C        16.2148902294       16.2798891522       10.2235916523
  N        15.9407673340       17.5644039820        3.0404975474
  C        16.2099459246       17.2933298168        1.7227988927
  N        15.9405708816        6.7556727508       13.8586212886
  C        16.2090108314        6.4843590941       12.5412951848
  N         6.6755479256        5.2036913993        3.0469454873
  C         6.4089389996        5.4767602470        1.7293069760
  N         6.6823670549       16.0149288645       13.8648963681
  C         6.4120544027       16.2836902887       12.5476982384
  N         6.6917045640       17.5718967741       19.7303158541
  C         6.4223798849       17.3009666720       21.0484064453
  N         6.6922455672        6.7641383422        8.9113713670
  C         6.4208668597        6.4931454454       10.2281396305
  N        19.6520683440       17.5685672049        6.7544307053
  C        20.9705488203       17.2977186435        6.4870147522
  N         8.8389191254       17.5661959899       17.5662037923
  C        10.1566757439       17.2961829996       17.2961875985
  N         2.9682903060        5.2051339885        6.7613292276
  C         1.6501563320        5.4745148414        6.4906101956
  N        13.7899545104        5.1987527625       17.5658705341
  C        12.4724363809        5.4713627249       17.2977049749
  N         2.9767587000       17.5741644318       16.0177036674
  C         1.6587824253       17.3012129104       16.2851041644
  N        13.7899511622       17.5658733599        5.1987472197
  C        12.4724348135       17.2976997421        5.4713655862
  N        19.6543869863        5.1987149877       16.0113912556
  C        20.9721386220        5.4712027117       16.2812541107
  N         8.8325537344        5.1935517235        5.1935534114
  C        10.1503241825        5.4634486823        5.4634495288
  N         6.6917084537       19.7303115895       17.5718962332
  C         6.4223827055       21.0484126092       17.3009701571
  N         6.6922435001        8.9113698216        6.7641399309
  C         6.4208691278       10.2281394297        6.4931458438
  N         6.6755493657        3.0469402708        5.2036847307
  C         6.4089363804        1.7293050068        5.4767601450
  N         6.6823668756       13.8648988409       16.0149223188
  C         6.4120506071       12.5476932141       16.2836888089
  N        15.9407679140        3.0405059708       17.5644006090
  C        16.2099378840        1.7227963489       17.2933289823
  N        15.9405807306       13.8586196762        6.7556669887
  C        16.2090126601       12.5413030518        6.4843591731
  N        15.9394617184       19.7224525845        5.1969751760
  C        16.2059022248       21.0405000963        5.4691316513
  N        15.9444720267        8.9064577545       16.0100759012
  C        16.2148857101       10.2235924790       16.2798921963
  N        17.4933133769        6.7541557591       19.7235923098
  C        17.2210153513        6.4859450713       21.0411871414
  N        17.4977850803       17.5671398002        8.9051829246
  C        17.2298983789       17.2967415209       10.2229352556
  N         5.1249144119        6.7641683639        3.0471677825
  C         5.3957542734        6.4954273003        1.7291827951
  N         5.1310653795       17.5745966768       13.8650033548
  C         5.3990379429       17.3025972819       12.5476681388
  N        17.4957514025       16.0083127784        3.0412309134
  C        17.2255645617       16.2769834095        1.7232777671
  N        17.4952875037        5.1990199026       13.8589453357
  C        17.2244468615        5.4678156914       12.5414933782
  N         5.1354152197       16.0164186806       19.7301386693
  C         5.4062207515       16.2850842135       21.0479662219
  N         5.1305981987        5.2138195847        8.9087709027
  C         5.4007516187        5.4812231509       10.2265243803
  N        17.5000173602       19.7246456514       16.0099330227
  C        17.2277597992       21.0423611089       16.2777725008
  N        17.4922403297        8.9043876992        5.1955465538
  C        17.2229561238       10.2217479643        5.4660636917
  N         5.1311503379        3.0467070962       16.0154273784
  C         5.4037264713        1.7291683930       16.2844217871
  N         5.1277163254       13.8630571094        5.2052984345
  C         5.3990009623       12.5460742477        5.4763226669
  N        17.4917087493        3.0397472511        6.7533685872
  C        17.2202193841        1.7219286704        6.4856462628
  N        17.5017905519       13.8600557737       17.5663556837
  C        17.2318297686       12.5426735708       17.2964690428
  N         5.1280396987       19.7298682411        6.7639982148
  C         5.3978171582       21.0479264163        6.4951190374
  N         5.1274109249        8.9108206948       17.5697613179
  C         5.3971895955       10.2281877048       17.3000101895
  N        19.6497906148        6.7539726972        5.1974508507
  C        20.9678811665        6.4871731597        5.4710470099
  N         8.8347465817        6.7641671421       16.0169531223
  C        10.1521740030        6.4920978012       16.2853711901
  N         2.9704118662        6.7593314653       17.5723130237
  C         1.6527595192        6.4894622352       17.2998049167
  N        13.7876833395        6.7524404785        6.7524383649
  C        12.4704886494        6.4813671894        6.4813660251
  N         2.9726339122       16.0160012057        5.2026536185
  C         1.6542580883       16.2837446462        5.4733430594
  N        13.7951520038       16.0115186433       16.0115129577
  C        12.4775929742       16.2811144905       16.2811102850
  N        19.6587708877       16.0120890199       17.5683623038
  C        20.9768453927       16.2823203664       17.2984792946
  N         8.8347502646       16.0169527655        6.7641656197
  C        10.1521709349       16.2853685107        6.4920978464
  N         6.6849662780       17.5729320019        3.0485050886
  C         6.4189398371       17.3011060300        1.7301768470
  N         6.6877349260        6.7564318910       13.8652966382
  C         6.4184885052        6.4887342213       12.5477854149
  N         6.6813004078        5.2062328918       19.7306724814
  C         6.4120950468        5.4774915150       21.0483867796
  N         6.6788102228       16.0100040834        8.9113108726
  C         6.4102262304       16.2811332931       10.2284416653
  N        15.9455831083       17.5666206202       19.7239334377
  C        16.2123563208       17.2943654271       21.0418614860
  N        15.9380632949        6.7518845914        8.9039684534
  C        16.2076790645        6.4825778952       10.2215183530
  N        15.9375899937        5.1961829986        3.0388997137
  C        16.2050575672        5.4689013565        1.7213692307
  N        15.9470772065       16.0100069835       13.8600804443
  C        16.2163533775       16.2799727237       12.5428539977
 Zn        14.6551179081       14.7182532640       14.7182521708
 Cl        13.4157363835       13.4892266117       13.4892308772
 Zn        14.6502331825        3.9017503152        3.9017506490
 Cl        13.4109464276        2.6726558285        2.6726633138
 Zn         3.8387127790       14.7234582568        3.9082414013
 Cl         2.6053386026       13.4890058539        2.6790491267
 Zn         3.8387122330        3.9082441846       14.7234584206
 Cl         2.6053383544        2.6790504534       13.4890089085
 Zn         7.9743244833        8.0547013955       14.7209728546
 Cl         9.2094194540        9.2814273296       13.4852193702
 Zn         7.9705366654       18.8681693230        3.9135968928
 Cl         9.2145545365       20.0929905125        2.6850581299
 Zn        18.7822638026        8.0456821536        3.9023855601
 Cl        20.0144382990        9.2793499305        2.6707382968
 Zn        18.7914024510       18.8616958057       14.7199379218
 Cl        20.0236958720       20.0884957160       13.4815315472
 Zn         7.9743226033       14.7209742409        8.0546980353
 Cl         9.2094176564       13.4852185331        9.2814232185
 Zn         7.9705354585        3.9135977025       18.8681701221
 Cl         9.2145512962        2.6850599408       20.0929920425
 Zn        18.7914046266       14.7199381151       18.8616943620
 Cl        20.0236970056       13.4815353306       20.0884942692
 Zn        18.7822621140        3.9023902793        8.0456770285
 Cl        20.0144323420        2.6707484369        9.2793504075
 Zn        14.6491380163        8.0476106788        8.0476075820
 Cl        13.4289055923        9.2859330675        9.2859341902
 Zn        14.6576591570       18.8617080611       18.8617104293
 Cl        13.4201722801       20.0914927995       20.0914954140
 Zn         3.8363320735        8.0532127332       18.8658616541
 Cl         2.6059373932        9.2919673876       20.0939159315
 Zn         3.8363310781       18.8658600512        8.0532122108
 Cl         2.6059359379       20.0939114739        9.2919685159
 Zn        14.6520451006       14.7183225047        8.0511391264
 Cl        13.4143829470       13.4913801139        9.2838370701
 Zn        14.6524700071        3.9026906029       18.8579640660
 Cl        13.4133131488        2.6727294050       20.0862815848
 Zn         3.8410414886       14.7254032873       18.8698024664
 Cl         2.6091630806       13.4898329574       20.0992055961
 Zn         3.8373720139        3.9159773718        8.0550655797
 Cl         2.6086907773        2.6915196689        9.2993853802
 Zn         7.9930965001        8.0485489720        8.0485494928
 Cl         9.3038929578        9.2393476386        9.2393451629
 Zn         7.9831894748       18.8628631907       18.8628637238
 Cl         9.2293236603       20.0881854224       20.0881824514
 Zn        18.7843468270        8.0461186377       18.8635796888
 Cl        20.0184377570        9.2808892798       20.0921742012
 Zn        18.7843484785       18.8635827307        8.0461169037
 Cl        20.0184396824       20.0921734933        9.2808871730
 Zn        14.6520400245        8.0511418002       14.7183200811
 Cl        13.4143791742        9.2838414295       13.4913789214
 Zn        14.6524692531       18.8579609676        3.9026883801
 Cl        13.4133131407       20.0862839044        2.6727269392
 Zn         3.8373721604        8.0550673240        3.9159815135
 Cl         2.6086823874        9.2993839032        2.6915212434
 Zn         3.8410405320       18.8698082040       14.7253983271
 Cl         2.6091603983       20.0992079128       13.4898296443
 Zn         7.9720773718       14.7187767006       14.7187742693
 Cl         9.1788496395       13.4732265413       13.4732263485
 Zn         7.9614515966        3.9034313738        3.9034305666
 Cl         9.1873368348        2.6676574139        2.6676577242
 Zn        18.7867724695       14.7189160057        3.9052486449
 Cl        20.0172362805       13.4816379602        2.6754985717
 Zn        18.7867696773        3.9052489254       14.7189140635
 Cl        20.0172309396        2.6754976165       13.4816396494
 Zn         5.9016712642        5.9841801109       16.7928476136
 Zn        16.7232063798       16.7866825901       16.7866829199
 Zn        16.7167226468        5.9695540029        5.9695525595
 Zn         5.9016720769       16.7928463837        5.9841783897
 Zn         5.9021099666        5.9829159778        5.9829144982
 Zn        16.7191514920       16.7851975834        5.9723153212
 Zn         5.9051465780       16.7935703369       16.7935687128
 Zn        16.7191513496        5.9723125793       16.7851959977
  N         3.7177553358        5.9807407910       16.7954084773
  N        14.5347319560        5.9746145677        5.9746128901
  N        18.9124090400       16.7901672695       16.7902043763
  N         8.0877034448       16.7951128890        5.9865721842
  N        18.9035263533        5.9737644313        5.9738026444
  N         8.0877022183        5.9865619702       16.7951219827
  N         3.7177568111       16.7954114967        5.9807429517
  N        14.5413311194       16.7897298923       16.7897274633
  N        16.7157597117        3.7858335294        5.9731924082
  N        16.7245218670       14.6065064036       16.7883324861
  N        16.7242662240       18.9775026076       16.7894960433
  N        16.7151461912        8.1573995947        5.9734437264
  N         5.9043791226       18.9834545645        5.9844568136
  N         5.9028465972        8.1645817508       16.7896188869
  N         5.9062745125        3.7943330559       16.7951994943
  N         5.9071384704       14.6107060405        5.9803482253
  N         5.9062751475       16.7951935350        3.7943343388
  N         5.9071272236        5.9803367897       14.6107068170
  N        16.7242755062       16.7894897282       18.9775040682
  N        16.7151646496        5.9734228195        8.1574032536
  N         5.9043864166        5.9844498091       18.9834565491
  N         5.9028491446       16.7896156751        8.1645834833
  N        16.7157434030        5.9731728821        3.7858378253
  N        16.7245126795       16.7883216769       14.6065080464
  N         5.8991002040        3.7937801913        5.9826290951
  N         5.9073572939       14.6114855890       16.7953826978
  N        16.7181047516       18.9762127518        5.9743671449
  N        16.7204181395        8.1590867795       16.7888345830
  N         5.9129759859       18.9835299317       16.7948078512
  N         5.9115047372        8.1636362756        5.9895381923
  N        16.7185950784        3.7873998566       16.7869999910
  N        16.7185416769       14.6051887949        5.9779783360
  N         3.7229556962       16.7974275921       16.7974531485
  N        14.5365811387       16.7880527550        5.9766429370
  N        18.9069259510       16.7903390251        5.9751993633
  N         8.0925286795       16.7883977061       16.7884035083
  N        18.9069252514        5.9752154699       16.7903573964
  N         8.0863839048        5.9717213226        5.9717225700
  N         3.7146876642        5.9836345361        5.9836731295
  N        14.5365804829        5.9766306699       16.7880668507
  N        16.7180649698        5.9743337594       18.9762148973
  N        16.7204133053       16.7888346818        8.1590895328
  N        16.7185968798       16.7869988302        3.7874022912
  N        16.7185596891        5.9779564556       14.6051899748
  N         5.8991094009        5.9826223210        3.7937833053
  N         5.9073736171       16.7953703423       14.6114874022
  N         5.9129786043       16.7948170358       18.9835316622
  N         5.9114995178        5.9895298901        8.1636383142
  C        11.3176287500       15.7301175678       15.7301119583
  H        11.3197983466       14.9545465775       14.9545358253
  C        11.3115639259        4.9140222627        4.9140225525
  H        11.3132280820        4.1385630611        4.1385634499
  C         0.4942577078       15.7318056765        4.9228865642
  H         0.4963334082       14.9557417857        4.1478740241
  C         0.4942606177        4.9228912697       15.7318027154
  H         0.4963311110        4.1478858857       14.9557373886
  C        11.3127809070        7.0411684851       15.7339542099
  H        11.3135582615        7.8170617003       14.9586067750
  C        11.3116805205       17.8488982980        4.9225025890
  H        11.3110709180       18.6234670136        4.1460618304
  C         0.4890368916        7.0395250358        4.9233738953
  H         0.4890470622        7.8157112468        4.1484894942
  C         0.4978586541       17.8494233372       15.7331032005
  H         0.4981819229       18.6245391303       14.9571551066
  C        11.3127818338       15.7339526964        7.0411653373
  H        11.3135585400       14.9586051251        7.8170559810
  C        11.3116808705        4.9225023877       17.8488995812
  H        11.3110704008        4.1460653392       18.6234645997
  C         0.4978582842       15.7331024845       17.8494182882
  H         0.4981844199       14.9571537644       18.6245309032
  C         0.4890348153        4.9233716465        7.0395225384
  H         0.4890436505        4.1484896477        7.8157029515
  C        11.3097335946        7.0309125426        7.0309113770
  H        11.3054870123        7.8065707192        7.8065688194
  C        11.3165538883       17.8469772845       17.8469818318
  H        11.3155053789       18.6224897080       18.6224967424
  C         0.4906161048        7.0388161854       17.8482824824
  H         0.4889537269        7.8148232341       18.6233645744
  C         0.4906201016       17.8482754683        7.0388214138
  H         0.4889527429       18.6233522158        7.8148306495
  C        15.6651061261       11.3835377935       15.7287955351
  H        14.8895232334       11.3839499043       14.9531657819
  C        15.6545156169        0.5606611865        4.9191149689
  H        14.8788884400        0.5604453435        4.1436311883
  C         4.8471767177       11.3848024304        4.9301591565
  H         4.0688013154       11.3819508222        4.1574015696
  C         4.8552355349        0.5678829511       15.7339796974
  H         4.0796272561        0.5668260909       14.9584528387
  C        15.6576713923       11.3812890108        7.0343312503
  H        14.8823984432       11.3807232365        7.8103108240
  C        15.6602694482        0.5620343989       17.8437344426
  H        14.8844197657        0.5616870185       18.6189724418
  C         4.8488529708       11.3877661125       17.8533789651
  H         4.0751830807       11.3873772318       18.6307545978
  C         4.8479564235        0.5680461722        7.0471384224
  H         4.0739358765        0.5670115865        7.8241836682
  C         6.9600739847       11.3881830677       15.7295318479
  H         7.7331516658       11.3888528736       14.9513723339
  C         6.9602642983        0.5693805076        4.9261190710
  H         7.7345469743        0.5709082819        4.1492400010
  C        17.7739631492       11.3816577711        4.9159676139
  H        18.5492328052       11.3818101215        4.1401680487
  C        17.7761973748        0.5631777177       15.7260977198
  H        18.5510560417        0.5641031624       14.9498460691
  C         6.9733505370       11.3894502416        7.0387130984
  H         7.7545269381       11.3934412998        7.8084871508
  C         6.9713722879        0.5700559053       17.8508093780
  H         7.7472356612        0.5716619250       18.6260162913
  C        17.7813581539       11.3823733025       17.8474487347
  H        18.5566339913       11.3817826884       18.6232325027
  C        17.7700184034        0.5618283498        7.0372464762
  H        18.5451736693        0.5625868152        7.8132218716
  C        15.6651144771       15.7287914065       11.3835352540
  H        14.8895329408       14.9531617279       11.3839470897
  C        15.6545216542        4.9191079722        0.5606571968
  H        14.8789015061        4.1436201997        0.5604488202
  C         4.8552382835       15.7339783628        0.5678827401
  H         4.0796298034       14.9584520818        0.5668252006
  C         4.8471708624        4.9301649458       11.3848029205
  H         4.0687962264        4.1574124680       11.3819514763
  C         6.9600766806       15.7295352647       11.3881837477
  H         7.7331550971       14.9513772104       11.3888522643
  C         6.9602660662        4.9261210471        0.5693814242
  H         7.7345480221        4.1492450885        0.5709106128
  C        17.7762048152       15.7261024010        0.5631742427
  H        18.5510637846       14.9498518160        0.5641035986
  C        17.7739627003        4.9159707600       11.3816563240
  H        18.5492311683        4.1401758115       11.3818107226
  C        15.6576689792        7.0343316217       11.3812868281
  H        14.8823954973        7.8103112803       11.3807234276
  C        15.6602766005       17.8437386835        0.5620328982
  H        14.8844247357       18.6189799300        0.5616852067
  C         4.8479522852        7.0471364974        0.5680457793
  H         4.0739271623        7.8241808778        0.5670121923
  C         4.8488518416       17.8533784229       11.3877629409
  H         4.0751797836       18.6307529482       11.3873784949
  C         6.9733499408        7.0387134811       11.3894475530
  H         7.7545292457        7.8084866918       11.3934408540
  C         6.9713746047       17.8508072498        0.5700535374
  H         7.7472398831       18.6260159549        0.5716636728
  C        17.7700142777        7.0372526728        0.5618305729
  H        18.5451679538        7.8132327230        0.5625867437
  C        17.7813635848       17.8474460000       11.3823710155
  H        18.5566400560       18.6232313104       11.3817848621
 Kr         6.6933572735       11.1809249199       11.1809244965
