     409
 i =      96, E =    -5186.5869049486
  N         2.9207422876        5.2000124478       16.0088078289
  C         1.6028779120        5.4709252028       16.2775877995
  N        13.7332239055        5.1816374179        5.1816352068
  C        12.4162144489        5.4536239967        5.4536198583
  N        19.6062683761       17.5673880816       16.0112231624
  C        20.9242242636       17.2958799050       16.2797769250
  N         8.7810121836       17.5734864267        5.1952090897
  C        10.0996888221       17.3043580621        5.4619570887
  N        19.6006412072        5.1964946187        6.7529151065
  C        20.9185847378        5.4698539235        6.4859860603
  N         8.7809862007        5.1952185672       17.5734773368
  C        10.0997022102        5.4619649056       17.3043554546
  N         2.9203109140       17.5638066658        6.7575206489
  C         1.6024340444       17.2931765153        6.4874684626
  N        13.7425296814       17.5763361100       17.5763380370
  C        12.4251858066       17.3053807001       17.3053840203
  N        15.8935557897        3.0375229726        5.1919688019
  C        16.1609744724        1.7204516370        5.4653880132
  N        15.8944832031       13.8582852055       16.0108040238
  C        16.1645699003       12.5405928685       16.2796086421
  N        15.8970383199       19.7237669574       17.5680051240
  C        16.1640074360       21.0411850911       17.2946801000
  N        15.8866495112        8.9002889435        6.7469524976
  C        16.1569426167       10.2186183789        6.4804594909
  N         6.6243700350       19.7254341929        5.2003781011
  C         6.3558543269       21.0428724157        5.4724187035
  N         6.6387150842        8.9059726967       16.0124947571
  C         6.3701061168       10.2237110490       16.2824747829
  N         6.6280720015        3.0421447533       17.5703317578
  C         6.3613376542        1.7242695744       17.2979148266
  N         6.6366609240       13.8609919332        6.7526743101
  C         6.3666593823       12.5432818985        6.4837333645
  N         5.0764728243       16.0107720368        3.0415916482
  C         5.3477534130       16.2796188620        1.7239553355
  N         5.0793433739        5.1982999261       13.8602602591
  C         5.3495804505        5.4687578757       12.5431848563
  N        17.4482767051       16.0080478684       19.7232084158
  C        17.1772277052       16.2759858227       21.0411250571
  N        17.4436432656        5.1937533580        8.9025309470
  C        17.1741692388        5.4657691554       10.2196315783
  N         5.0726892758        6.7597523137       19.7240445007
  C         5.3422777077        6.4908132893       21.0422922743
  N         5.0801890366       17.5649851681        8.9069465520
  C         5.3523374638       17.2966116945       10.2240852218
  N        17.4450908570        6.7519644090        3.0387532724
  C        17.1741797139        6.4841301259        1.7209769677
  N        17.4513484650       17.5650695676       13.8581027351
  C        17.1814975407       17.2946833277       12.5406055126
  N         5.0704813980        3.0414499936        6.7583627282
  C         5.3412640820        1.7235227754        6.4899504901
  N         5.0822556779       13.8608240573       17.5676096875
  C         5.3532424811       12.5436937201       17.2978693430
  N        17.4457105385       19.7229247618        6.7523179484
  C        17.1745707741       21.0406795489        6.4843383047
  N        17.4489937007        8.9029629796       17.5673802603
  C        17.1802602094       10.2202892648       17.2957744847
  N         5.0786620032       19.7249951724       16.0103387598
  C         5.3488254766       21.0430011416       16.2793140418
  N         5.0776288382        8.9066218098        5.1993344140
  C         5.3488570780       10.2236351807        5.4692421715
  N        17.4463407123        3.0395560880       16.0070838429
  C        17.1761853064        1.7217188030       16.2755736031
  N        17.4457520724       13.8571404968        5.1976833027
  C        17.1753554983       12.5397095460        5.4676854954
  N         2.9236750382       16.0100186751       17.5662000210
  C         1.6058440506       16.2791263937       17.2951812066
  N        13.7414379673       16.0198097919        6.7399845835
  C        12.4232884284       16.2892138466        6.4723762025
  N        19.6032981717       16.0099181485        5.1965635316
  C        20.9212042782       16.2781461873        5.4690547901
  N         8.7896410462       16.0156668222       16.0156682098
  C        10.1064793223       16.2871505943       16.2871519888
  N        19.6026151792        6.7521836967       17.5669484602
  C        20.9206439324        6.4848881173       17.2945675449
  N         8.7832630206        6.7483167309        6.7483135312
  C        10.0996093133        6.4752520534        6.4752461812
  N         2.9182676121        6.7583195075        5.2018233691
  C         1.6003801455        6.4885775217        5.4724839658
  N        13.7414620729        6.7399756087       16.0198238477
  C        12.4232786083        6.4723717180       16.2892248343
  N        15.8946427748        5.1925475400       19.7234472065
  C        16.1614536096        5.4656030542       21.0407643017
  N        15.8928452126       16.0129745406        8.9019044991
  C        16.1635464740       16.2805706019       10.2199239833
  N        15.8947416486       17.5671353212        3.0386576839
  C        16.1628940045       17.2942582832        1.7213971389
  N        15.8887544531        6.7516166913       13.8573689007
  C        16.1582390097        6.4825678100       12.5395244942
  N         6.6213762065        5.1981207763        3.0409350841
  C         6.3544739879        5.4712799069        1.7234620820
  N         6.6404016735       16.0140518374       13.8614985943
  C         6.3708003096       16.2833754993       12.5438771322
  N         6.6310604743       17.5690232541       19.7255822142
  C         6.3627759190       17.2973109128       21.0433266535
  N         6.6352880229        6.7527666313        8.9050833884
  C         6.3661076820        6.4838919731       10.2229961203
  N        19.6026128244       17.5669427292        6.7521876810
  C        20.9206439935       17.2945626598        6.4848893795
  N         8.7854300557       17.5715617634       17.5715665147
  C        10.1039836552       17.3031630449       17.3031671072
  N         2.9182615411        5.2018206988        6.7583204868
  C         1.6003815434        5.4724811344        6.4885794533
  N        13.7381240182        5.1855747618       17.5770952214
  C        12.4209049684        5.4571872685       17.3061096586
  N         2.9237103735       17.5661875390       16.0100362960
  C         1.6058232242       17.2951755853       16.2791357858
  N        13.7381474163       17.5770804247        5.1855829155
  C        12.4208949580       17.3060981046        5.4571921551
  N        19.6032901045        5.1965680833       16.0099163345
  C        20.9212002601        5.4690592335       16.2781447085
  N         8.7763116252        5.1923168827        5.1923181779
  C        10.0952071932        5.4592259215        5.4592230938
  N         6.6310742967       19.7256088470       17.5690319836
  C         6.3627819335       21.0433128053       17.2973160080
  N         6.6352864256        8.9050848303        6.7527711630
  C         6.3661064696       10.2229938981        6.4838934067
  N         6.6213710244        3.0409411850        5.1981223472
  C         6.3544714110        1.7234574938        5.4712803064
  N         6.6403934174       13.8615156933       16.0140576658
  C         6.3707945493       12.5438697168       16.2833788296
  N        15.8947334794        3.0386446032       17.5671424308
  C        16.1628816320        1.7213997799       17.2942567431
  N        15.8887480439       13.8573567032        6.7516176219
  C        16.1582310600       12.5395330852        6.4825627909
  N        15.8946416536       19.7234405463        5.1925495518
  C        16.1614574042       21.0407622783        5.4656012114
  N        15.8928534567        8.9018834613       16.0129822880
  C        16.1635465828       10.2199329109       16.2805770656
  N        17.4457015670        6.7523248567       19.7229288967
  C        17.1745596171        6.4843462262       21.0406816695
  N        17.4489846127       17.5673718450        8.9029411959
  C        17.1802614448       17.2957688280       10.2203002240
  N         5.0704840319        6.7583588844        3.0414556828
  C         5.3412662717        6.4899473615        1.7235213589
  N         5.0822593925       17.5676012324       13.8608416004
  C         5.3532451065       17.2978644187       12.5436838915
  N        17.4463503031       16.0070773315        3.0395429924
  C        17.1761979320       16.2755765599        1.7217232177
  N        17.4457567328        5.1976817287       13.8571325640
  C        17.1753643156        5.4676876646       12.5397124293
  N         5.0786500710       16.0103291311       19.7250229331
  C         5.3488206498       16.2793087557       21.0429846418
  N         5.0776245396        5.1993370106        8.9066223074
  C         5.3488523758        5.4692439619       10.2236363465
  N        17.4482791538       19.7232259396       16.0080399029
  C        17.1772238345       21.0411157071       16.2759738454
  N        17.4436451132        8.9025363600        5.1937486306
  C        17.1741656981       10.2196273378        5.4657616428
  N         5.0764579783        3.0415626902       16.0107631918
  C         5.3477421121        1.7239707359       16.2796143755
  N         5.0793445704       13.8602637064        5.1982981946
  C         5.3495843987       12.5431811029        5.4687566882
  N        17.4450950799        3.0387491752        6.7519624875
  C        17.1741882169        1.7209715613        6.4841249984
  N        17.4513330824       13.8581257687       17.5650586597
  C        17.1814825649       12.5405936515       17.2946785078
  N         5.0726921003       19.7240425942        6.7597509830
  C         5.3422777943       21.0422891267        6.4908141077
  N         5.0801965144        8.9069234555       17.5649765566
  C         5.3523430017       10.2240982699       17.2966064151
  N        19.6006499732        6.7529173534        5.1964925533
  C        20.9185746093        6.4859860412        5.4698541669
  N         8.7861872146        6.7496460431       16.0158872018
  C        10.1028377110        6.4770363885       16.2873804489
  N         2.9203325462        6.7575071013       17.5637992860
  C         1.6024166711        6.4874599858       17.2931726523
  N        13.7383151681        6.7369250230        6.7369206950
  C        12.4198474197        6.4695871944        6.4695809281
  N         2.9207676113       16.0088223998        5.2000183597
  C         1.6028645638       16.2775969548        5.4709275498
  N        13.7447232076       16.0202525239       16.0202496187
  C        12.4268121509       16.2893211941       16.2893213580
  N        19.6062360035       16.0112343693       17.5673696012
  C        20.9242356841       16.2797851545       17.2958669252
  N         8.7861612594       16.0158948278        6.7496349519
  C        10.1028503234       16.2873816921        6.4770282942
  N         6.6280881279       17.5703420597        3.0421164825
  C         6.3613489464       17.2979199463        1.7242832084
  N         6.6366618074        6.7526682805       13.8609964744
  C         6.3666601841        6.4837315686       12.5432801209
  N         6.6243714876        5.2003788421       19.7254334084
  C         6.3558542625        5.4724206009       21.0428741483
  N         6.6387079209       16.0125062762        8.9059522787
  C         6.3701020839       16.2824816123       10.2237202196
  N        15.8970323265       17.5680143873       19.7237859419
  C        16.1640124480       17.2946896366       21.0411775201
  N        15.8866500826        6.7469575439        8.9002990055
  C        16.1569483120        6.4804667444       10.2186113986
  N        15.8935592988        5.1919599708        3.0375296905
  C        16.1609728148        5.4653865538        1.7204508680
  N        15.8944990723       16.0108179635       13.8583082764
  C        16.1645827052       16.2796128220       12.5405821558
 Zn        14.6029746989       14.7256758817       14.7256760799
 Cl        13.3418518068       13.5097446780       13.5097462167
 Zn        14.6038560654        3.8937009132        3.8937048643
 Cl        13.3858541652        2.6541311737        2.6541357020
 Zn         3.7858439726       14.7188035987        3.9044764449
 Cl         2.5526485877       13.4833797438        2.6759481067
 Zn         3.7858460080        3.9044810888       14.7188093190
 Cl         2.5526524345        2.6759504252       13.4833814675
 Zn         7.9306810203        8.0442684839       14.7214805403
 Cl         9.1541423041        9.2760017073       13.4826104719
 Zn         7.9125687266       18.8679260845        3.9043443521
 Cl         9.1512155072       20.0993657907        2.6767688163
 Zn        18.7348193609        8.0449026391        3.9012138562
 Cl        19.9656171730        9.2794092503        2.6692847617
 Zn        18.7407303444       18.8604523252       14.7187792340
 Cl        19.9718149027       20.0889340407       13.4808084940
 Zn         7.9306817299       14.7214744024        8.0442717238
 Cl         9.1541426045       13.4826029137        9.2759985442
 Zn         7.9125706544        3.9043413280       18.8679337088
 Cl         9.1512143703        2.6767681010       20.0993719666
 Zn        18.7407345282       14.7187757658       18.8604521170
 Cl        19.9718186560       13.4808103525       20.0889334413
 Zn        18.7348207414        3.9012086163        8.0449072717
 Cl        19.9656192207        2.6692871216        9.2794154752
 Zn        14.5970066134        8.0274417193        8.0274443944
 Cl        13.3341684322        9.2436759992        9.2436765555
 Zn        14.6084561801       18.8684712528       18.8684753888
 Cl        13.3855771007       20.1052036001       20.1052047415
 Zn         3.7845192888        8.0519333178       18.8557627397
 Cl         2.5501244857        9.2895861703       20.0811376847
 Zn         3.7845215205       18.8557556450        8.0519309560
 Cl         2.5501263538       20.0811321895        9.2895858301
 Zn        14.6004599930       14.7279518771        8.0351970054
 Cl        13.3375608939       13.5270989904        9.2648593132
 Zn        14.6056359343        3.8954746702       18.8681454379
 Cl        13.3844818552        2.6534299766       20.1016578064
 Zn         3.7877739142       14.7190081226       18.8608390011
 Cl         2.5550000094       13.4818639666       20.0880499633
 Zn         3.7827702731        3.9067694132        8.0514496738
 Cl         2.5472590429        2.6817036632        9.2879746112
 Zn         7.9275641695        8.0437282378        8.0437284253
 Cl         9.1535154915        9.2778132716        9.2778119033
 Zn         7.9185667158       18.8647210047       18.8647158336
 Cl         9.1596677720       20.0929611016       20.0929559094
 Zn        18.7368818079        8.0442533633       18.8626701662
 Cl        19.9693509348        9.2765539201       20.0952292883
 Zn        18.7368901750       18.8626715671        8.0442525191
 Cl        19.9693525126       20.0952322579        9.2765517171
 Zn        14.6004547101        8.0351984465       14.7279474416
 Cl        13.3375559012        9.2648583230       13.5270993497
 Zn        14.6056344379       18.8681451348        3.8954730020
 Cl        13.3844848139       20.1016582239        2.6534294495
 Zn         3.7827701312        8.0514500628        3.9067700775
 Cl         2.5472572375        9.2879747937        2.6817037226
 Zn         3.7877681844       18.8608454077       14.7189988475
 Cl         2.5549984237       20.0880500996       13.4818586947
 Zn         7.9337340227       14.7220428101       14.7220413485
 Cl         9.1548001629       13.4855462888       13.4855459268
 Zn         7.9074142653        3.9009091122        3.9009087338
 Cl         9.1417249119        2.6691669683        2.6691682554
 Zn        18.7370804165       14.7174957078        3.9034452802
 Cl        19.9668935570       13.4764208339        2.6768523303
 Zn        18.7370797251        3.9034452792       14.7174957747
 Cl        19.9668884606        2.6768511234       13.4764216039
 Zn         5.8499407243        5.9750857332       16.7862020856
 Zn        16.6704241599       16.7886053525       16.7886012899
 Zn        16.6672929564        5.9628310006        5.9628363926
 Zn         5.8499420460       16.7862043028        5.9750869613
 Zn         5.8470569888        5.9741764330        5.9741775850
 Zn        16.6683990403       16.7890219001        5.9652046940
 Zn         5.8529517207       16.7868965825       16.7868985888
 Zn        16.6683986092        5.9652024327       16.7890295751
  N         3.6668236531        5.9785911781       16.7868760115
  N        14.4822824359        5.9583862595        5.9583875937
  N        18.8597559370       16.7900239913       16.7900518920
  N         8.0370883038       16.7938891966        5.9740494847
  N        18.8542760479        5.9728934110        5.9729084099
  N         8.0370888264        5.9740225759       16.7939193361
  N         3.6668248256       16.7868510629        5.9785674165
  N        14.4898314042       16.7986041981       16.7986048407
  N        16.6704548705        3.7844224739        5.9701707705
  N        16.6727503745       14.6047351399       16.7884511367
  N        16.6738351867       18.9768047759       16.7895872267
  N        16.6649996931        8.1545724419        5.9689379670
  N         5.8482248925       18.9779285881        5.9790843596
  N         5.8583246369        8.1598581387       16.7882015563
  N         5.8510419123        3.7885275070       16.7916205271
  N         5.8579420767       14.6068974782        5.9751903613
  N         5.8510149252       16.7915847287        3.7885303246
  N         5.8579474615        5.9751927695       14.6068958513
  N        16.6738531766       16.7895663912       18.9768047731
  N        16.6650045583        5.9689241716        8.1545716922
  N         5.8482275629        5.9790828327       18.9779271599
  N         5.8583468838       16.7881795960        8.1598612224
  N        16.6704586133        5.9701618340        3.7844257624
  N        16.6727258916       16.7884257074       14.6047350015
  N         5.8448667051        3.7878763431        5.9768682813
  N         5.8608725685       14.6074449846       16.7907053137
  N        16.6714417741       18.9764462516        5.9708130036
  N        16.6703005598        8.1556325693       16.7912202202
  N         5.8542307647       18.9784873153       16.7904440085
  N         5.8558384542        8.1592610180        5.9758392370
  N        16.6712339402        3.7854271743       16.7883729648
  N        16.6674796718       14.6038433446        5.9743208932
  N         3.6700127874       16.7885997052       16.7885615847
  N        14.4860875071       16.7986549152        5.9618890407
  N        18.8565440780       16.7894664709        5.9729097439
  N         8.0409666637       16.7926230596       16.7926245446
  N        18.8565428616        5.9729046205       16.7894649440
  N         8.0333226825        5.9719344927        5.9719356753
  N         3.6644437632        5.9797290405        5.9797227619
  N        14.4860885525        5.9619137213       16.7986335199
  N        16.6714406235        5.9708151648       18.9764485331
  N        16.6703282248       16.7912487947        8.1556328871
  N        16.6712193581       16.7883861821        3.7854281214
  N        16.6674639687        5.9743243714       14.6038420411
  N         5.8448614798        5.9768754051        3.7878757408
  N         5.8608558081       16.7907209943       14.6074456122
  N         5.8542600889       16.7904810115       18.9784890033
  N         5.8558394555        5.9758395668        8.1592596647
  C        11.2676495058       15.7377414499       15.7377407271
  H        11.2707029836       14.9621387954       14.9621354588
  C        11.2531594331        4.9060226413        4.9060195537
  H        11.2483819998        4.1305314164        4.1305315601
  C         0.4423680922       15.7271096030        4.9204275797
  H         0.4432705610       14.9510909345        4.1453689525
  C         0.4423703724        4.9204392567       15.7271062901
  H         0.4432687949        4.1453818103       14.9510767475
  C        11.2645743017        7.0246654183       15.7373099417
  H        11.2684181348        7.7998038026       14.9612393847
  C        11.2587387366       17.8559065315        4.9095887832
  H        11.2555652597       18.6317950169        4.1344767371
  C         0.4394977983        7.0379747155        4.9216035736
  H         0.4398397348        7.8136273113        4.1461611262
  C         0.4450653695       17.8451225142       15.7286468050
  H         0.4454389231       18.6199984268       14.9524252677
  C        11.2645826002       15.7373039096        7.0246637526
  H        11.2684190589       14.9612339020        7.7998008029
  C        11.2587469022        4.9095895431       17.8559119459
  H        11.2555668348        4.1344782263       18.6317995168
  C         0.4450757309       15.7286443913       17.8451161234
  H         0.4454382652       14.9524173785       18.6199913392
  C         0.4395016809        4.9216014383        7.0379757811
  H         0.4398423696        4.1461611837        7.8136260107
  C        11.2623817163        7.0229710821        7.0229622935
  H        11.2680674509        7.7985778202        7.7985676896
  C        11.2634651049       17.8545985623       17.8546040088
  H        11.2609773723       18.6301048625       18.6301124834
  C         0.4412874049        7.0369245482       17.8434624238
  H         0.4411891372        7.8128337552       18.6186528733
  C         0.4412949593       17.8434527142        7.0369264116
  H         0.4411918326       18.6186435401        7.8128452159
  C        15.6129314220       11.3802541169       15.7300960793
  H        14.8351493516       11.3798994919       14.9567957172
  C        15.6114149804        0.5604446071        4.9140019174
  H        14.8381792028        0.5604976106        4.1360382537
  C         4.7977720874       11.3834635615        4.9192982513
  H         4.0207978314       11.3834708598        4.1451932325
  C         4.7995855435        0.5633119770       15.7274311110
  H         4.0256506207        0.5632947024       14.9502883266
  C        15.6062041727       11.3788534512        7.0313266601
  H        14.8283983806       11.3781187030        7.8045778291
  C        15.6136988304        0.5611429260       17.8457008405
  H        14.8399799966        0.5612391629       18.6231588202
  C         4.8012843205       11.3838093937       17.8469246673
  H         4.0239401606       11.3836026760       18.6206840598
  C         4.7931660735        0.5628591220        7.0425343432
  H         4.0193228700        0.5630366961        7.8197309686
  C         6.9220487725       11.3838005117       15.7330752546
  H         7.6980768914       11.3839593903       14.9578774953
  C         6.9048468842        0.5632338060        4.9207010134
  H         7.6790475544        0.5635361439        4.1437443575
  C        17.7259502480       11.3798354161        4.9169922299
  H        18.5019034599       11.3802966617        4.1418235636
  C        17.7251235313        0.5615586894       15.7230916350
  H        18.4985604836        0.5619017362       14.9454249373
  C         6.9175848416       11.3830169121        7.0340658476
  H         7.6935557544       11.3830059331        7.8093401905
  C         6.9119165788        0.5639871609       17.8485565756
  H         7.6863786934        0.5644572766       18.6252200195
  C        17.7319809946       11.3804060579       17.8451122580
  H        18.5077935632       11.3805616181       18.6204446574
  C        17.7228269567        0.5609661772        7.0370122110
  H        18.4964472938        0.5612908774        7.8145050773
  C        15.6129380588       15.7300936973       11.3802466043
  H        14.8351569246       14.9567948006       11.3798985118
  C        15.6114154334        4.9139996874        0.5604498068
  H        14.8381875974        4.1360288426        0.5605006124
  C         4.7995887467       15.7274298035        0.5633008796
  H         4.0256533281       14.9502864725        0.5632910979
  C         4.7977671386        4.9193050523       11.3834653511
  H         4.0207890985        4.1452035194       11.3834721443
  C         6.9220527185       15.7330762082       11.3838074299
  H         7.6980811480       14.9578808530       11.3839611310
  C         6.9048476462        4.9207035343        0.5632350098
  H         7.6790508548        4.1437458749        0.5635353943
  C        17.7251370530       15.7230995361        0.5615635266
  H        18.4985745969       14.9454347900        0.5619026091
  C        17.7259575424        4.9169997419       11.3798417251
  H        18.5019104645        4.1418316474       11.3802982397
  C        15.6062128035        7.0313365836       11.3788525622
  H        14.8284089206        7.8045888459       11.3781173654
  C        15.6137106306       17.8457068242        0.5611380446
  H        14.8399895228       18.6231665089        0.5612392969
  C         4.7931634395        7.0425337376        0.5628592248
  H         4.0193189344        7.8197283147        0.5630377670
  C         4.8012833297       17.8469220992       11.3838022924
  H         4.0239366355       18.6206802671       11.3836012262
  C         6.9175892447        7.0340631293       11.3830161256
  H         7.6935622284        7.8093319827       11.3830041271
  C         6.9119182868       17.8485558534        0.5639978973
  H         7.6863799081       18.6252198745        0.5644622150
  C        17.7228119108        7.0370241783        0.5609735617
  H        18.4964297945        7.8145215449        0.5612965046
  C        17.7319889832       17.8451087329       11.3804130780
  H        18.5078021007       18.6204401584       11.3805623474
 Kr        11.3270128778       11.3789963026       11.3789968821
