     409
 i =       25, E =     -5186.5894493716
  N         3.0798550337        5.2341316873       16.0523594647
  C         1.7623137121        5.5097289662       16.3163538479
  N        13.8986127841        5.2340847888        5.2333126834
  C        12.5808406786        5.5034317400        5.5039464151
  N        19.7624898277       17.6077331047       16.0522371559
  C        21.0801636903       17.3373006173       16.3213841542
  N         8.9422868722       17.6086382279        5.2322010293
  C        10.2600167790       17.3382149496        5.5015216395
  N        19.7625423151        5.2334180337        6.7889861078
  C        21.0801309992        5.5027310810        6.5181640631
  N         8.9426221811        5.2324722627       17.6088700949
  C        10.2603232679        5.5013136528       17.3379986015
  N         3.0783773693       17.6089616142        6.7893934044
  C         1.7607799747       17.3390569860        6.5194570604
  N        13.8983319863       17.6087902670       17.6086587861
  C        12.5807317307       17.3377405737       17.3394086721
  N        16.0530438957        3.0794344827        5.2332041858
  C        16.3227697960        1.7616428634        5.5031218559
  N        16.0543457784       13.8994262982       16.0524853887
  C        16.3236882093       12.5816397497       16.3224923168
  N        16.0528271999       19.7633214561       17.6080508356
  C        16.3228677869       21.0810205538       17.3380342716
  N        16.0526631448        8.9435435406        6.7886205334
  C        16.3218521622       10.2612277251        6.5180083938
  N         6.7871950231       19.7633660482        5.2322080059
  C         6.5167504345       21.0810495150        5.5018634072
  N         6.7861453968        8.9413236141       16.0503905753
  C         6.5100299872       10.2587708806       16.3140489204
  N         6.7886592677        3.0786599738       17.6097911970
  C         6.5185161198        1.7610023840       17.3401863799
  N         6.7879571847       13.8990770365        6.7899257589
  C         6.5176510900       12.5815548142        6.5200248040
  N         5.2327989948       16.0524509479        3.0788064238
  C         5.5029924948       16.3215651415        1.7609455968
  N         5.2323328583        5.2339415389       13.8998738936
  C         5.4959461929        5.5099395573       12.5823185268
  N        17.6080307044       16.0526504931       19.7626056418
  C        17.3373431921       16.3218864419       21.0802576251
  N        17.6084199259        5.2328474409        8.9427716000
  C        17.3372799401        5.5018514501       10.2603639694
  N         5.2320981865        6.7882820252       19.7628729629
  C         5.5008815264        6.5171010073       21.0805526038
  N         5.2316317247       17.6077847430        8.9424309131
  C         5.5005737832       17.3371089194       10.2601161038
  N        17.6099872963        6.7893908131        3.0787973640
  C        17.3408925332        6.5188616470        1.7611153549
  N        17.6094799317       17.6090334783       13.8986289418
  C        17.3395266309       17.3391233481       12.5810153763
  N         5.2337112670        3.0795075771        6.7915487426
  C         5.5020448975        1.7617628722        6.5199228533
  N         5.2252697982       13.8973311196       17.6012292090
  C         5.4920706270       12.5795350169       17.3282306221
  N        17.6087412511       19.7632403976        6.7889442965
  C        17.3387855306       21.0808481710        6.5190133611
  N        17.6062838016        8.9432052335       17.6108354992
  C        17.3374362814       10.2607876476       17.3398614822
  N         5.2333828976       19.7624434206       16.0540908353
  C         5.5028428359       21.0801846464       16.3242753550
  N         5.2332605479        8.9433109007        5.2315814648
  C         5.5022330938       10.2610706447        5.5023948891
  N        17.6117364941        3.0794722177       16.0543098088
  C        17.3406262213        1.7617513594       16.3231611294
  N        17.6078671299       13.8995611459        5.2321094129
  C        17.3374496676       12.5819075658        5.5015081140
  N         3.0785641527       16.0546460618       17.6097481656
  C         1.7609331237       16.3229069054       17.3382834952
  N        13.8985183735       16.0530326164        6.7880999951
  C        12.5808251110       16.3222190847        6.5175138071
  N        19.7623400637       16.0537681998        5.2330545913
  C        21.0800825728       16.3232986494        5.5031722394
  N         8.9422410051       16.0491732403       16.0550668627
  C        10.2600582341       16.3195689830       16.3245724837
  N        19.7638730122        6.7960442920       17.6020885841
  C        21.0815504732        6.5282630424       17.3299486703
  N         8.9423998296        6.7873708806        6.7927834935
  C        10.2601022664        6.5180523396        6.5220632084
  N         3.0782139820        6.7880410384        5.2304815740
  C         1.7605334312        6.5181619089        5.5004416928
  N        13.8987569772        6.7873806807       16.0527072573
  C        12.5811050890        6.5167516282       16.3218490436
  N        16.0555463627        5.2330576345       19.7623885845
  C        16.3255973506        5.5027006168       21.0801516055
  N        16.0530578493       16.0537594604        8.9425216348
  C        16.3231071196       16.3234306669       10.2602744451
  N        16.0519930687       17.6085689496        3.0786147705
  C        16.3211863891       17.3379053051        1.7609416306
  N        16.0502268806        6.7876271476       13.8985526017
  C        16.3198811866        6.5174602797       12.5808538674
  N         6.7878832169        5.2314956767        3.0789029299
  C         6.5169509830        5.5004388584        1.7612242765
  N         6.7892527462       16.0545728509       13.8985580064
  C         6.5176764745       16.3227601675       12.5809064434
  N         6.7892167984       17.6064196615       19.7623256609
  C         6.5191646507       17.3365921857       21.0799285251
  N         6.7813403532        6.7966426572        8.9438407276
  C         6.5093319841        6.5286931117       10.2615220126
  N        19.7625162468       17.6096070727        6.7888211880
  C        21.0801188956       17.3394569213        6.5190643047
  N         8.9422736254       17.6065223445       17.6095458305
  C        10.2599047309       17.3363664305       17.3398352406
  N         3.0783631063        5.2310434869        6.7850669983
  C         1.7607177682        5.5015163527        6.5158847341
  N        13.8987685934        5.2316214060       17.6085487975
  C        12.5810520175        5.5006795503       17.3378635739
  N         3.0785093688       17.6094788103       16.0529225395
  C         1.7608279650       17.3384414062       16.3217409463
  N        13.8984878274       17.6087491543        5.2321899220
  C        12.5807920385       17.3382516730        5.5014707243
  N        19.7636245241        5.2401737519       16.0463211494
  C        21.0815003919        5.5120173462       16.3140285835
  N         8.9422019136        5.2330703133        5.2353205577
  C        10.2599827930        5.5028660389        5.5051868100
  N         6.7890742734       19.7626198035       17.6099802123
  C         6.5187925641       21.0802807066       17.3403722620
  N         6.7902644042        8.9433519217        6.7862647238
  C         6.5187822475       10.2609301141        6.5179186158
  N         6.7883973372        3.0795258195        5.2343840556
  C         6.5173578208        1.7618589445        5.5031371467
  N         6.7813295753       13.8973753647       16.0456003029
  C         6.5084806152       12.5795667539       16.3124571047
  N        16.0545009984        3.0794979492       17.6089316865
  C        16.3238048491        1.7618256553       17.3384321960
  N        16.0518875110       13.8996004174        6.7877757943
  C        16.3213169793       12.5819234424        6.5174421271
  N        16.0530179563       19.7631138052        5.2330337010
  C        16.3227316693       21.0808713427        5.5030242497
  N        16.0515281997        8.9431455784       16.0538919270
  C        16.3219344006       10.2609072954       16.3232972804
  N        17.6129296594        6.7874326722       19.7625789180
  C        17.3423664687        6.5179857998       21.0802613363
  N        17.6088665946       17.6096390276        8.9426895146
  C        17.3391026425       17.3394855133       10.2602955727
  N         5.2321307470        6.7874133372        3.0789729015
  C         5.5009218881        6.5164845533        1.7613147030
  N         5.2323563082       17.6093425908       13.8985379017
  C         5.5009329132       17.3381104139       12.5808283653
  N        17.6079115054       16.0527305320        3.0786485682
  C        17.3372289016       16.3218711063        1.7609820053
  N        17.6050205774        5.2308022837       13.8986560684
  C        17.3352890311        5.5007698052       12.5810012566
  N         5.2346052935       16.0492506262       19.7622543189
  C         5.5038168677       16.3198836019       21.0800675977
  N         5.2252302828        5.2410645030        8.9435867637
  C         5.4930294646        5.5128246066       10.2614673526
  N        17.6091225331       19.7631354966       16.0526562704
  C        17.3393142229       21.0808935142       16.3224295302
  N        17.6085442267        8.9435628862        5.2328540042
  C        17.3379255039       10.2612236656        5.5020442763
  N         5.2327911942        3.0787494968       16.0538481183
  C         5.5025384105        1.7609993430       16.3240693542
  N         5.2317037062       13.8995573537        5.2345629523
  C         5.5013612485       12.5817792026        5.5042343511
  N        17.6089479440        3.0791766859        6.7890624210
  C        17.3389023633        1.7615786636        6.5191059736
  N        17.6096927411       13.8989389124       17.6087624344
  C        17.3393949216       12.5814098524       17.3388666788
  N         5.2317151662       19.7631112654        6.7883629332
  C         5.5011381769       21.0808938329        6.5182978366
  N         5.2302311077        8.9413261630       17.6058816710
  C         5.4938477003       10.2587510667       17.3297171298
  N        19.7621877368        6.7896079608        5.2336312321
  C        21.0798877200        6.5190325595        5.5024421606
  N         8.9426576601        6.7882257834       16.0528835599
  C        10.2603163392        6.5172905206       16.3219531392
  N         3.0797082320        6.7896628702       17.6080043434
  C         1.7623215486        6.5257000180       17.3322504321
  N        13.8986834369        6.7894309556        6.7896303453
  C        12.5809785887        6.5190126923        6.5204647914
  N         3.0784745912       16.0532182312        5.2334804613
  C         1.7607569397       16.3229324403        5.5034927147
  N        13.8988554944       16.0523074641       16.0534625363
  C        12.5809766960       16.3212165835       16.3238276465
  N        19.7627028147       16.0522051958       17.6083079580
  C        21.0803149354       16.3215475921       17.3376539199
  N         8.9423936816       16.0527209968        6.7879915104
  C        10.2600709726       16.3221301268        6.5174911473
  N         6.7882037250       17.6088178918        3.0782931545
  C         6.5186246238       17.3380433238        1.7607213994
  N         6.7882989824        6.7891193667       13.8997596989
  C         6.5121681417        6.5255837240       12.5823319771
  N         6.7878558675        5.2324002098       19.7628451740
  C         6.5169164007        5.5011038905       21.0805244995
  N         6.7878318372       16.0523412429        8.9426311351
  C         6.5170012634       16.3215199573       10.2602401311
  N        16.0521960415       17.6085298648       19.7624819485
  C        16.3213411114       17.3379331955       21.0801941510
  N        16.0529769946        6.7890663283        8.9424427227
  C        16.3216349243        6.5182347093       10.2601476256
  N        16.0538273892        5.2337838446        3.0787149948
  C        16.3245223354        5.5031283012        1.7609675147
  N        16.0535724799       16.0532500245       13.8987547076
  C        16.3234675383       16.3230827108       12.5810088738
 Zn        14.7607926765       14.7604235008       14.7601779433
 Cl        13.5290954966       13.5271234714       13.5282700516
 Zn        14.7604473299        3.9412385359        3.9403360099
 Cl        13.5280557869        2.7096974384        2.7074116560
 Zn         3.9397856750       14.7604236636        3.9406581547
 Cl         2.7068711144       13.5277901364        2.7092928115
 Zn         3.9405259812        3.9408223650       14.7607217822
 Cl         2.7056918179        2.7123558269       13.5271561858
 Zn         8.0813803654        8.0815197230       14.7603068049
 Cl         9.3115204933        9.3166391579       13.5286738859
 Zn         8.0811380146       18.9022278364        3.9399683390
 Cl         9.3135519171       20.1363920466        2.7095635892
 Zn        18.9021511153        8.0827460257        3.9405267156
 Cl        20.1365459327        9.3163230288        2.7114572453
 Zn        18.9023152363       18.9020134586       14.7601915394
 Cl        20.1371582913       20.1348957911       13.5308978774
 Zn         8.0820053770       14.7603663866        8.0819965193
 Cl         9.3163869926       13.5312321541        9.3154666532
 Zn         8.0817965348        3.9402574622       18.9023838061
 Cl         9.3144379743        2.7100734017       20.1367279595
 Zn        18.9021326714       14.7602635878       18.9023328437
 Cl        20.1352365777       13.5314263743       20.1373880720
 Zn        18.9021364314        3.9403598715        8.0821315219
 Cl        20.1354366193        2.7096611939        9.3151063102
 Zn        14.7603907209        8.0826309417        8.0821140330
 Cl        13.5310128656        9.3160287575        9.3163880290
 Zn        14.7600735421       18.9022765821       18.9014131764
 Cl        13.5300153909       20.1364527288       20.1341695578
 Zn         3.9401556441        8.0818484818       18.9013335990
 Cl         2.7083151357        9.3171875923       20.1310919781
 Zn         3.9398094383       18.9021033623        8.0820903206
 Cl         2.7096611413       20.1349951378        9.3160871932
 Zn        14.7600752542       14.7608704000        8.0818154273
 Cl        13.5289320647       13.5302317607        9.3169554017
 Zn        14.7614281339        3.9405157384       18.9021907791
 Cl        13.5346121676        2.7076693918       20.1394465854
 Zn         3.9394666995       14.7593403990       18.9009538645
 Cl         2.7093196495       13.5260918187       20.1345030670
 Zn         3.9393391796        3.9416017638        8.0822058164
 Cl         2.7091425512        2.7114652362        9.3188042831
 Zn         8.0810204338        8.0830406904        8.0825750061
 Cl         9.3124091618        9.3139596484        9.3173245415
 Zn         8.0820538384       18.9008355247       18.9022822715
 Cl         9.3158719430       20.1293109890       20.1370318826
 Zn        18.9028338345        8.0829987189       18.9012465140
 Cl        20.1377740613        9.3137961444       20.1325738388
 Zn        18.9021062237       18.9026863963        8.0820416636
 Cl        20.1343724783       20.1353599359        9.3141901955
 Zn        14.7593944237        8.0820004545       14.7605284578
 Cl        13.5290811314        9.3176260701       13.5294611962
 Zn        14.7601178824       18.9023537513        3.9401401761
 Cl        13.5292431696       20.1375522717        2.7092216193
 Zn         3.9401007751        8.0821396259        3.9393817891
 Cl         2.7078260098        9.3171906241        2.7096763854
 Zn         3.9402524871       18.9026495723       14.7604961468
 Cl         2.7078800893       20.1367501562       13.5299835290
 Zn         8.0808156957       14.7595378608       14.7596070869
 Cl         9.3146297951       13.5265455685       13.5294756005
 Zn         8.0818637827        3.9404899109        3.9413687782
 Cl         9.3179729069        2.7077837715        2.7132972070
 Zn        18.9018293668       14.7607689763        3.9401248633
 Cl        20.1368710743       13.5299772793        2.7090656918
 Zn        18.9022694707        3.9414649559       14.7596806282
 Cl        20.1391423279        2.7110586235       13.5300486376
 Zn         6.0104144829        6.0114407773       16.8306524357
 Zn        16.8311903393       16.8312416600       16.8310298881
 Zn        16.8311020338        6.0114939389        6.0111452550
 Zn         6.0107019916       16.8312570471        6.0110406369
 Zn         6.0105445836        6.0115108803        6.0112299215
 Zn        16.8308508712       16.8315163663        6.0108644764
 Zn         6.0106470714       16.8305199155       16.8308282432
 Zn        16.8313107831        6.0114000033       16.8308623722
  N         3.8263531268        6.0083782210       16.8338053845
  N        14.6451803293        6.0120857699        6.0111838720
  N        19.0160607885       16.8304026976       16.8307692696
  N         8.1958234853       16.8309683675        6.0104427174
  N        19.0158105355        6.0117832931        6.0116979166
  N         8.1961928648        6.0108363543       16.8314183328
  N         3.8249246136       16.8312157579        6.0114306231
  N        14.6451277140       16.8311409787       16.8307990058
  N        16.8311665360        3.8257836121        6.0111611617
  N        16.8321944807       14.6457027974       16.8307014820
  N        16.8309871900       19.0167114963       16.8304651421
  N        16.8310116044        8.1970317382        6.0111331795
  N         6.0097582633       19.0166952033        6.0104537920
  N         6.0119317917        8.1948487362       16.8318565674
  N         6.0109999731        3.8251294011       16.8317346923
  N         6.0101425621       14.6458443264        6.0121945700
  N         6.0103605986       16.8311122143        3.8250386807
  N         6.0140195617        6.0079075827       14.6464202089
  N        16.8305880170       16.8310009450       19.0160526181
  N        16.8312753549        6.0114127256        8.1961066749
  N         6.0106738590        6.0109790557       19.0163718512
  N         6.0103302763       16.8305847598        8.1960178018
  N        16.8315844417        6.0119204699        3.8252361165
  N        16.8315928076       16.8312050827       14.6452007571
  N         6.0115727171        3.8259373288        6.0134463389
  N         6.0053654675       14.6438071411       16.8254960090
  N        16.8310269026       19.0166311998        6.0109804612
  N        16.8288143103        8.1966424276       16.8325759061
  N         6.0114609697       19.0158944448       16.8319421281
  N         6.0122428746        8.1967931775        6.0085575384
  N        16.8333460103        3.8258949887       16.8318889977
  N        16.8301943459       14.6460788885        6.0102488717
  N         3.8250321055       16.8325806298       16.8318647552
  N        14.6450168304       16.8312586879        6.0105207871
  N        19.0158724600       16.8319143904        6.0108491095
  N         8.1957817142       16.8281113676       16.8321644173
  N        19.0172271944        6.0167287596       16.8258064975
  N         8.1957833361        6.0103562791        6.0139999634
  N         3.8248211332        6.0096389551        6.0078538476
  N        14.6453516061        6.0100239807       16.8311024603
  N        16.8341334270        6.0104335113       19.0159882580
  N        16.8309486561       16.8318735885        8.1960907494
  N        16.8304012633       16.8311044212        3.8250831724
  N        16.8279760557        6.0095576899       14.6451460433
  N         6.0106116986        6.0100639545        3.8254859039
  N         6.0114443635       16.8325591850       14.6450662163
  N         6.0119254207       16.8279811334       19.0158101790
  N         6.0049426945        6.0174290446        8.1972106622
  C        11.4207227570       15.7695034413       15.7742169528
  H        11.4210135150       14.9935446213       14.9989829088
  C        11.4202765396        4.9529321845        4.9539161972
  H        11.4198964796        4.1776869168        4.1779601960
  C         0.6004108635       15.7725665938        4.9529117554
  H         0.6002974561       14.9967239771        4.1775585270
  C         0.6018927672        4.9608793027       15.7642552281
  H         0.6019801175        4.1833421425       14.9905983394
  C        11.4207723320        7.0671233652       15.7711612476
  H        11.4208707468        7.8428567363       14.9957276331
  C        11.4203818959       17.8885860475        4.9509448815
  H        11.4202379047       18.6645279938        4.1757106177
  C         0.5999350594        7.0695593255        4.9514071930
  H         0.5991298919        7.8462942036        4.1769505129
  C         0.6003045027       17.8877952362       15.7705234055
  H         0.5996516189       18.6629344606       14.9944777116
  C        11.4204742051       15.7716835632        7.0679143557
  H        11.4204065843       14.9964365097        7.8438490303
  C        11.4205572233        4.9504384117       17.8882908745
  H        11.4200913296        4.1751466580       18.6641522174
  C         0.6007963079       15.7715163066       17.8882195447
  H         0.6010473835       14.9958784107       18.6637476124
  C         0.6006761056        4.9516449016        7.0675060741
  H         0.6010704555        4.1767493277        7.8437770605
  C        11.4206693817        7.0685579278        7.0720671974
  H        11.4208081877        7.8437055213        7.8480812913
  C        11.4201007746       17.8876265382       17.8898716259
  H        11.4195022708       18.6635014521       18.6651718428
  C         0.6019674894        7.0777648567       17.8812352751
  H         0.6020711875        7.8515021275       18.6586770052
  C         0.6004431554       17.8895783554        7.0698680689
  H         0.6003124202       18.6650934147        7.8455273193
  C        15.7727532786       11.4215036855       15.7719947925
  H        14.9977405137       11.4219650444       14.9958013552
  C        15.7722640131        0.6012893338        4.9526338067
  H        14.9964710901        0.6012018252        4.1772317490
  C         4.9506657056       11.4216602928        4.9534595393
  H         4.1743739298       11.4221503404        4.1785405784
  C         4.9522274199        0.6005194283       15.7737816257
  H         4.1767948360        0.6001509835       14.9980211451
  C        15.7709321760       11.4215835889        7.0680055952
  H        14.9955117524       11.4215010201        7.8437580043
  C        15.7726073591        0.6015288317       17.8883855802
  H        14.9968270377        0.6016330121       18.6637980620
  C         4.9420400049       11.4191125336       17.8789695200
  H         4.1686744200       11.4186571869       18.6567859319
  C         4.9512007265        0.6011704461        7.0695917065
  H         4.1763220269        0.6007712567        7.8458901768
  C         7.0593471316       11.4191975066       15.7624250644
  H         7.8376021057       11.4189441837       14.9894985193
  C         7.0672243287        0.6015851532        4.9518001776
  H         7.8429035795        0.6017112250        4.1762887538
  C        17.8881085853       11.4215530622        4.9512561552
  H        18.6640196596       11.4214139671        4.1759885427
  C        17.8905518641        0.6011965953       15.7725081372
  H        18.6666158582        0.6008821199       14.9973941594
  C         7.0685305661       11.4210077436        7.0695679024
  H         7.8437193228       11.4204328073        7.8455383260
  C         7.0690358834        0.6007462137       17.8908065772
  H         7.8446607249        0.6008793902       18.6663458584
  C        17.8888732090       11.4208674828       17.8898305555
  H        18.6646612071       11.4202893486       18.6652028209
  C        17.8890962502        0.6011437100        7.0697005370
  H        18.6644448976        0.6008344041        7.8455338538
  C        15.7728280999       15.7727820362       11.4206432953
  H        14.9972064450       14.9972080921       11.4205232182
  C        15.7744149760        4.9526763559        0.6004207976
  H        14.9983861379        4.1775023307        0.6000000102
  C         4.9532817135       15.7699456946        0.6006950673
  H         4.1781069189       14.9939249772        0.6009332272
  C         4.9434339128        4.9615276760       11.4218865596
  H         4.1696631408        4.1841061511       11.4219742627
  C         7.0675434410       15.7714107502       11.4207014046
  H         7.8433060842       14.9960033773       11.4208076352
  C         7.0671387372        4.9500373130        0.6007055332
  H         7.8430780947        4.1748057561        0.6001338969
  C        17.8875516072       15.7712248708        0.6006499696
  H        18.6632509640       14.9957396583        0.6005547986
  C        17.8866869525        4.9507659134       11.4208968147
  H        18.6627141692        4.1756202916       11.4212259401
  C        15.7704155205        7.0684636989       11.4202573384
  H        14.9957044904        7.8449425851       11.4195061931
  C        15.7706118737       17.8881785306        0.6005330481
  H        14.9951689984       18.6639102481        0.6003586449
  C         4.9502732515        7.0670258648        0.6010480227
  H         4.1750356197        7.8429478450        0.6012693789
  C         4.9497395739       17.8875411106       11.4203117025
  H         4.1737355400       18.6627179554       11.4197037549
  C         7.0609505061        7.0778319745       11.4219611162
  H         7.8388160894        7.8511386455       11.4220252505
  C         7.0691787715       17.8878688198        0.6001142279
  H         7.8446066261       18.6636234993        0.5995064546
  C        17.8923552729        7.0685408234        0.6008053458
  H        18.6680944749        7.8439637278        0.6009191642
  C        17.8897605133       17.8897687061       11.4206332839
  H        18.6652552204       18.6654529898       11.4204462834
 Kr         3.4652834471        8.5284181107       14.2841178679
