     409
 i =      96, E =    -5186.4780217352
  N         2.8044364246        5.2178890176       16.0255655728
  C         1.5036911171        5.4856481297       16.2933231245
  N        13.6084462112        5.2143209791        5.2143216949
  C        12.3076885889        5.4820769053        5.4820783316
  N        19.4998356506       17.5580299616       16.0200553651
  C        20.8007857611       17.2902850609       16.2869404369
  N         8.6887437777       17.5615983559        5.2159478475
  C         9.9896790785       17.2938424064        5.4828438632
  N        19.4926998763        5.2123796969        6.7503549619
  C        20.7936494063        5.4792651029        6.4826100518
  N         8.6887425741        5.2159481190       17.5615976898
  C         9.9896775729        5.4828448113       17.2938432459
  N         2.8054512642       17.5635410840        6.7558658056
  C         1.5043540590       17.2966418817        6.4889662258
  N        13.6165941694       17.5599721855       17.5599720243
  C        12.3154841115       17.2930759957       17.2930752553
  N        15.7806864960        3.0407393074        5.2136044476
  C        16.0476742341        1.7397307247        5.4808445990
  N        15.7878175899       13.8483219151       16.0212745944
  C        16.0548073981       12.5472992657       16.2885171848
  N        15.7902735080       19.7320685049       17.5592543984
  C        16.0579288090       21.0329296789       17.2918506767
  N        15.7831344544        8.9245380990        6.7515844593
  C        16.0508050503       10.2253840952        6.4841660752
  N         6.5165018110       19.7351269158        5.2166647884
  C         6.2497044976       21.0361652821        5.4840683836
  N         6.5165044481        8.9275981051       16.0243376644
  C         6.2496921154       10.2286215596       16.2917552977
  N         6.5150656240        3.0437990383       17.5623160915
  C         6.2472195226        1.7429672134       17.2950755606
  N         6.5150719959       13.8513814814        6.7546453158
  C         6.2472224887       12.5505358553        6.4874025367
  N         4.9765838457       16.0248461342        3.0443074983
  C         5.2435716566       16.2920877890        1.7432985678
  N         4.9765821443        5.2171716314       13.8518882660
  C         5.2435683467        5.4844097610       12.5508654953
  N        17.3277389436       16.0207738844       19.7315579646
  C        17.0609424639       16.2881753040       21.0325967092
  N        17.3206032687        5.2130979258        8.9240320619
  C        17.0537957491        5.4805106723       10.2250561108
  N         4.9790340373        6.7551482869       19.7356359727
  C         5.2466908749        6.4877438592       21.0364970138
  N         4.9790348379       17.5628239449        8.9281092691
  C         5.2467010237       17.2954088579       10.2289558092
  N        17.3191691703        6.7510715126        3.0402327415
  C        17.0513242610        6.4838309484        1.7393992722
  N        17.3263047731       17.5587475007       13.8478101388
  C        17.0584613293       17.2915095247       12.5469633950
  N         4.9735243016        3.0443088256        6.7551481604
  C         5.2403347201        1.7433003954        6.4877321754
  N         4.9806595752       13.8518874682       17.5628231676
  C         5.2474674537       12.5508655370       17.2954092096
  N        17.3246777019       19.7315581032        6.7510697192
  C        17.0577060899       21.0325962353        6.4838439641
  N        17.3246764345        8.9240330348       17.5587441730
  C        17.0576938265       10.2250558876       17.2915092724
  N         4.9820951273       19.7356339348       16.0248486355
  C         5.2499268728       21.0364957373       16.2920747398
  N         4.9749602286        8.9281066741        5.2171736725
  C         5.2428020290       10.2289536003        5.4844112253
  N        17.3222270119        3.0402341518       16.0207745416
  C        17.0545591614        1.7394007945       16.2881894017
  N        17.3222285945       13.8478127385        5.2130975805
  C        17.0545630604       12.5469660309        5.4805119022
  N         2.8085113941       16.0255666269       17.5635393336
  C         1.5075907302       16.2933239885       17.2966415087
  N        13.6125250516       16.0219949881        6.7523004300
  C        12.3115916062       16.2897535053        6.4853999978
  N        19.4957589833       16.0200559012        5.2123809172
  C        20.7968854017       16.2869409412        5.4792651181
  N         8.6917982287       16.0236205140       16.0236202531
  C         9.9929102764       16.2905197859       16.2905199399
  N        19.4967741487        6.7503527319       17.5580269868
  C        20.7975470493        6.4826089281       17.2902850251
  N         8.6856795448        6.7539254535        6.7539252414
  C         9.9864373995        6.4861663682        6.4861672413
  N         2.8013782958        6.7558651382        5.2178916500
  C         1.5004571699        6.4889661180        5.4856485551
  N        13.6125246881        6.7523001815       16.0219953105
  C        12.3115902945        6.4854003064       16.2897536480
  N        15.7861984253        5.2136064858       19.7320662785
  C        16.0540301025        5.4808315279       21.0329273474
  N        15.7861954670       16.0212778582        8.9245368281
  C        16.0540414775       16.2885178712       10.2253826587
  N        15.7847647750       17.5592539057        3.0407387917
  C        16.0515744086       17.2918387622        1.7397306689
  N        15.7847604781        6.7515836108       13.8483231340
  C        16.0515705311        6.4841648248       12.5473007480
  N         6.5109906656        5.2166648697        3.0438022592
  C         6.2433212260        5.4840810461        1.7429697068
  N         6.5181305107       16.0243377432       13.8513831141
  C         6.2504590224       16.2917553438       12.5505368672
  N         6.5205739442       17.5623139281       19.7351264015
  C         6.2536025336       17.2950878273       21.0361645784
  N         6.5134435702        6.7546417493        8.9275970041
  C         6.2464558970        6.4874017175       10.2286198485
  N        19.4967760241       17.5580278534        6.7503523133
  C        20.7975486002       17.2902845437        6.4826087778
  N         8.6928190355       17.5615965902       17.5615953100
  C         9.9935766947       17.2938431044       17.2938413447
  N         2.8013775614        5.2178906332        6.7558659342
  C         1.5004569885        5.4856478774        6.4889674224
  N        13.6125206225        5.2143231266       17.5599710714
  C        12.3115871663        5.4820776383       17.2930759252
  N         2.8085114051       17.5635402968       16.0255661986
  C         1.5075908745       17.2966419424       16.2933232890
  N        13.6125221490       17.5599710940        5.2143230873
  C        12.3115884994       17.2930756961        5.4820777767
  N        19.4957572037        5.2123815226       16.0200569258
  C        20.7968834155        5.4792656584       16.2869409812
  N         8.6846659793        5.2159486448        5.2159488858
  C         9.9857773113        5.4828441372        5.4828444785
  N         6.5205738612       19.7351277417       17.5623137318
  C         6.2536016888       21.0361654984       17.2950878690
  N         6.5134431581        8.9275971045        6.7546429886
  C         6.2464560924       10.2286197383        6.4874023083
  N         6.5109910081        3.0438016148        5.2166664924
  C         6.2433215237        1.7429690439        5.4840824736
  N         6.5181298786       13.8513835550       16.0243366531
  C         6.2504587903       12.5505374657       16.2917553886
  N        15.7847631946        3.0407396574       17.5592534221
  C        16.0515730434        1.7397315369       17.2918392421
  N        15.7847598531       13.8483219761        6.7515832313
  C        16.0515708426       12.5473002175        6.4841646338
  N        15.7861994296       19.7320662056        5.2136054675
  C        16.0540313364       21.0329270379        5.4808308635
  N        15.7861947166        8.9245365424       16.0212781070
  C        16.0540408748       10.2253832212       16.2885176755
  N        17.3246760252        6.7510694087       19.7315575195
  C        17.0577053496        6.4838439803       21.0325958727
  N        17.3246771471       17.5587443751        8.9240324244
  C        17.0576948011       17.2915087384       10.2250553825
  N         4.9735248660        6.7551473672        3.0443095031
  C         5.2403350452        6.4877315912        1.7433006282
  N         4.9806593211       17.5628227809       13.8518868166
  C         5.2474680151       17.2954093777       12.5508648627
  N        17.3222288174       16.0207735361        3.0402329357
  C        17.0545605747       16.2881891687        1.7393998317
  N        17.3222276913        5.2130981483       13.8478138910
  C        17.0545620305        5.4805108361       12.5469671696
  N         4.9820943804       16.0248501799       19.7356338789
  C         5.2499276113       16.2920748234       21.0364952613
  N         4.9749601730        5.2171732278        8.9281070070
  C         5.2428020973        5.4844102159       10.2289538177
  N        17.3277387271       19.7315589169       16.0207728997
  C        17.0609421585       21.0325980879       16.2881754318
  N        17.3206035538        8.9240319019        5.2130982023
  C        17.0537967639       10.2250558342        5.4805120169
  N         4.9765815683        3.0443087883       16.0248482856
  C         5.2435700524        1.7432994583       16.2920882321
  N         4.9765821718       13.8518870841        5.2171709056
  C         5.2435693212       12.5508647855        5.4844100677
  N        17.3191690594        3.0402319200        6.7510724812
  C        17.0513231001        1.7393990369        6.4838326059
  N        17.3263045868       13.8478099010       17.5587471038
  C        17.0584608508       12.5469640172       17.2915090617
  N         4.9790348723       19.7356350640        6.7551483216
  C         5.2466911833       21.0364966729        6.4877439163
  N         4.9790338814        8.9281095342       17.5628229970
  C         5.2467003758       10.2289559122       17.2954089436
  N        19.4926991810        6.7503541327        5.2123801052
  C        20.7936493559        6.4826093422        5.4792659618
  N         8.6887388839        6.7539270873       16.0236203892
  C         9.9896739836        6.4861672466       16.2905200555
  N         2.8054501326        6.7558658651       17.5635409184
  C         1.5043531626        6.4889664008       17.2966422436
  N        13.6094630429        6.7523013096        6.7523014555
  C        12.3083533987        6.4853996493        6.4854007016
  N         2.8044369091       16.0255649419        5.2178883977
  C         1.5036923740       16.2933227123        5.4856481924
  N        13.6155835499       16.0219932544       16.0219928398
  C        12.3148258639       16.2897539694       16.2897525336
  N        19.4998360803       16.0200564770       17.5580295360
  C        20.8007856598       16.2869414479       17.2902847080
  N         8.6887410115       16.0236192721        6.7539272353
  C         9.9896758402       16.2905199410        6.4861673856
  N         6.5150680488       17.5623155742        3.0437986572
  C         6.2472211723       17.2950749524        1.7429665639
  N         6.5150703818        6.7546448024       13.8513830566
  C         6.2472226396        6.4874019924       12.5505366499
  N         6.5165002019        5.2166656924       19.7351262696
  C         6.2497038047        5.4840683441       21.0361647335
  N         6.5165058842       16.0243373933        8.9275983751
  C         6.2496929979       16.2917555177       10.2286213145
  N        15.7902733029       17.5592548086       19.7320690362
  C        16.0579300260       17.2918509210       21.0329297544
  N        15.7831347042        6.7515837374        8.9245374775
  C        16.0508044118        6.4841652946       10.2253841815
  N        15.7806870679        5.2136030837        3.0407401898
  C        16.0476743782        5.4808433902        1.7397314350
  N        15.7878175883       16.0212753535       13.8483210175
  C        16.0548072276       16.2885176971       12.5472985370
 Zn        14.4702563812       14.7043009741       14.7043003746
 Cl        13.2646655502       13.4999029691       13.4999021909
 Zn        14.4630982999        3.8966356022        3.8966365519
 Cl        13.2575336581        2.6922282448        2.6922293087
 Zn         3.6590285142       14.7078456250        3.9002040946
 Cl         2.4534284164       13.5034732702        2.6957963228
 Zn         3.6590274250        3.9002040432       14.7078458426
 Cl         2.4534269315        2.6957963477       13.5034736330
 Zn         7.8331951844        8.0716183761       14.7064932066
 Cl         9.0379922891        9.2760179250       13.5012986644
 Zn         7.8332313101       18.8792742677        3.8988160376
 Cl         9.0379969070       20.0836922865        2.6936185803
 Zn        18.6372804363        8.0680844919        3.8952487116
 Cl        19.8420966236        9.2724522784        2.6900508095
 Zn        18.6444274412       18.8757174953       14.7028780056
 Cl        19.8492369725       20.0801303609       13.4977211330
 Zn         7.8331958821       14.7064928441        8.0716183998
 Cl         9.0379933272       13.5012990735        9.2760177820
 Zn         7.8332298137        3.8988163135       18.8792739839
 Cl         9.0379946944        2.6936191879       20.0836924335
 Zn        18.6444269744       14.7028785279       18.8757161983
 Cl        19.8492363161       13.4977223956       20.0801293844
 Zn        18.6372802244        3.8952485850        8.0680851168
 Cl        19.8420955899        2.6900502601        9.2724530270
 Zn        14.4658780846        8.0694269330        8.0694270884
 Cl        13.2618783084        9.2746220875        9.2746221535
 Zn        14.4729671248       18.8770947814       18.8770945770
 Cl        13.2690045077       20.0823029059       20.0823013975
 Zn         3.6617731239        8.0730303929       18.8806515970
 Cl         2.4577688806        9.2781938384       20.0858649744
 Zn         3.6617739436       18.8806516017        8.0730302074
 Cl         2.4577697675       20.0858655007        9.2781932391
 Zn        14.4680685034       14.7043018913        8.0694277459
 Cl        13.2632725160       13.4999039512        9.2746224005
 Zn        14.4680323465        3.8966254606       18.8770837072
 Cl        13.2632683465        2.6922244683       20.0822971048
 Zn         3.6639625121       14.7078355269       18.8806517490
 Cl         2.4591629570       13.5034694508       20.0858653643
 Zn         3.6568388677        3.9002047590        8.0730196262
 Cl         2.4520335734        2.6957976507        9.2781890315
 Zn         7.8310043868        8.0716168292        8.0716172429
 Cl         9.0365971457        9.2760167815        9.2760166972
 Zn         7.8381863234       18.8792847252       18.8792837785
 Cl         9.0437407235       20.0836976096       20.0836961312
 Zn        18.6422349970        8.0680950014       18.8757156744
 Cl        19.8478401957        9.2724574169       20.0801283857
 Zn        18.6422364056       18.8757155687        8.0680946826
 Cl        19.8478415335       20.0801290055        9.2724567247
 Zn        14.4680674180        8.0694278186       14.7043017800
 Cl        13.2632717559        9.2746229075       13.4999036140
 Zn        14.4680338743       18.8770831391        3.8966251978
 Cl        13.2632704827       20.0822968988        2.6922236025
 Zn         3.6568395891        8.0730190472        3.9002054149
 Cl         2.4520345370        9.2781881494        2.6957975283
 Zn         3.6639628819       18.8806520232       14.7078346223
 Cl         2.4591637829       20.0858661150       13.5034681607
 Zn         7.8353864083       14.7064920716       14.7064916355
 Cl         9.0393880573       13.5012985236       13.5012978550
 Zn         7.8282747569        3.8988266494        3.8988278829
 Cl         9.0322501941        2.6936239215        2.6936246823
 Zn        18.6394716661       14.7028891086        3.8952476678
 Cl        19.8434918894       13.4977268643        2.6900501100
 Zn        18.6394705108        3.8952477865       14.7028899082
 Cl        19.8434900935        2.6900500129       13.4977273701
 Zn         5.7468284928        5.9859407680       16.7935262895
 Zn        16.5579794543       16.7899581649       16.7899577698
 Zn        16.5508447511        5.9823715060        5.9823725495
 Zn         5.7468297437       16.7935261313        5.9859402591
 Zn         5.7432621001        5.9859401938        5.9859409049
 Zn        16.5544124692       16.7899573280        5.9823718812
 Zn         5.7503966152       16.7935263911       16.7935259796
 Zn        16.5544116324        5.9823718126       16.7899581011
  N         3.5447173063        5.9866346931       16.7943092939
  N        14.3487228544        5.9830670306        5.9830674009
  N        18.7600740430       16.7892868059       16.7892865466
  N         7.9489699108       16.7928532894        5.9851813231
  N        18.7529396702        5.9816116687        5.9816130881
  N         7.9489686385        5.9851811941       16.7928541530
  N         3.5447186831       16.7943088201        5.9866335698
  N        14.3558585591       16.7907402016       16.7907388503
  N        16.5501723694        3.7802596637        5.9823373222
  N        16.5573063083       14.5878358929       16.7900115588
  N        16.5587613588       18.9920526230       16.7900150799
  N        16.5516245248        8.1845129832        5.9823416055
  N         5.7475240502       18.9956211280        5.9859070632
  N         5.7475241683        8.1880819869       16.7935813875
  N         5.7460692194        3.7838284830       16.7935821714
  N         5.7460707707       14.5914032235        5.9859076270
  N         5.7460690193       16.7935823846        3.7838277746
  N         5.7460688373        5.9859083723       14.5914040578
  N        16.5587612332       16.7900160830       18.9920524037
  N        16.5516251564        5.9823414482        8.1845134383
  N         5.7475219647        5.9859074435       18.9956215251
  N         5.7475249370       16.7935805951        8.1880815988
  N        16.5501724939        5.9823360793        3.7802606359
  N        16.5573063187       16.7900112666       14.5878356525
  N         5.7425019121        3.7838275797        5.9859078861
  N         5.7496377088       14.5914037807       16.7935804956
  N        16.5551949273       18.9920529699        5.9823363298
  N        16.5551924669        8.1845135355       16.7900120503
  N         5.7510915045       18.9956215368       16.7935811151
  N         5.7439577770        8.1880820559        5.9859079092
  N        16.5537397588        3.7802600144       16.7900162391
  N        16.5537397625       14.5878347732        5.9823422148
  N         3.5482852022       16.7943101135       16.7943091673
  N        14.3522908057       16.7907390490        5.9830670220
  N        18.7565078975       16.7892869359        5.9816112156
  N         7.9525367079       16.7928542205       16.7928535274
  N        18.7565065110        5.9816114776       16.7892869263
  N         7.9454027220        5.9851800901        5.9851820768
  N         3.5411500890        5.9866333840        5.9866346755
  N        14.3522898906        5.9830669276       16.7907406556
  N        16.5551921696        5.9823378078       18.9920533789
  N        16.5551927303       16.7900116249        8.1845133102
  N        16.5537409841       16.7900155418        3.7802594441
  N        16.5537384064        5.9823411217       14.5878358140
  N         5.7425030650        5.9859073853        3.7838281317
  N         5.7496383447       16.7935813910       14.5914034055
  N         5.7510894575       16.7935824255       18.9956208037
  N         5.7439553296        5.9859089914        8.1880822432
  C        11.1535118629       15.7507972356       15.7507965002
  H        11.1530054374       14.9837554186       14.9837547754
  C        11.1463766364        4.9431177787        4.9431187080
  H        11.1458704568        4.1760749403        4.1760758336
  C         0.3423558718       15.7543605722        4.9466854377
  H         0.3418043096       14.9873103295        4.1796345778
  C         0.3423541889        4.9466857351       15.7543608109
  H         0.3418029947        4.1796343084       14.9873107809
  C        11.1506327270        7.0251232700       15.7507975057
  H        11.1506316396        7.7921651212       14.9837556248
  C        11.1506345720       17.8328027334        4.9431175123
  H        11.1506329868       18.5998456039        4.1760745925
  C         0.3394772110        7.0286957673        4.9466862200
  H         0.3394305610        7.7957459564        4.1796347232
  C         0.3466123344       17.8363719858       15.7543599408
  H         0.3465654574       18.6034229059       14.9873096664
  C        11.1506344927       15.7507974028        7.0251229144
  H        11.1506328014       14.9837557453        7.7921642957
  C        11.1506329723        4.9431182828       17.8328029481
  H        11.1506314551        4.1760753070       18.5998453880
  C         0.3466120835       15.7543606410       17.8363710031
  H         0.3465652448       14.9873108616       18.6034220316
  C         0.3394770090        4.9466858738        7.0286964633
  H         0.3394302966        4.1796344485        7.7957461110
  C        11.1477514319        7.0251221991        7.0251224536
  H        11.1482582502        7.7921634463        7.7921640306
  C        11.1548864725       17.8328031614       17.8328023765
  H        11.1553932848       18.5998460034       18.5998446467
  C         0.3437295246        7.0286967491       17.8363703324
  H         0.3441908199        7.7957459356       18.6034220809
  C         0.3437305898       17.8363705831        7.0286963670
  H         0.3441921567       18.6034222837        7.7957456302
  C        15.5149070476       11.3865191512       15.7493561812
  H        14.7476120093       11.3867732227       14.9825680245
  C        15.5077678936        0.5789277994        4.9416781505
  H        14.7404652197        0.5791348659        4.1748805777
  C         4.7036651911       11.3900868931        4.9452454795
  H         3.9363687701       11.3903409353        4.1784559165
  C         4.7036632372        0.5824965516       15.7529204689
  H         3.9363588942        0.5827035342       14.9861232826
  C        15.5120287007       11.3865206755        7.0236828746
  H        14.7452397699       11.3867730590        7.7909763347
  C        15.5120216445        0.5789302599       17.8313628666
  H        14.7452251489        0.5791355367       18.5986665487
  C         4.7079186856       11.3900889320       17.8349303728
  H         3.9411292825       11.3903417797       18.6022264905
  C         4.7007842845        0.5824980237        7.0272564735
  H         3.9339860879        0.5827034916        7.7945594378
  C         6.7892362134       11.3894016704       15.7522369042
  H         7.5560252766       11.3891480918       14.9849422748
  C         6.7821060308        0.5818106865        4.9445586968
  H         7.5489028599        0.5815096689        4.1772543075
  C        17.5933456501       11.3858334791        4.9409893115
  H        18.3601358141       11.3855792976        4.1736924506
  C        17.5933443984        0.5782431281       15.7486645383
  H        18.3601425754        0.5779417672       14.9813605516
  C         6.7863568979       11.3893993689        7.0265634362
  H         7.5536512742       11.3891472990        7.7933523066
  C         6.7863600821        0.5818092260       17.8342438705
  H         7.5536630952        0.5815097531       18.6010415432
  C        17.5975993691       11.3858317628       17.8306752809
  H        18.3648953511       11.3855794864       18.5974652722
  C        17.5904644011        0.5782404557        7.0230009531
  H        18.3577686760        0.5779410943        7.7897986070
  C        15.5149078596       15.7493565750       11.3865179815
  H        14.7476130023       14.9825687658       11.3867726214
  C        15.5077672156        4.9416778878        0.5789282903
  H        14.7404657522        4.1748790873        0.5791358610
  C         4.7036640563       15.7529209504        0.5824960593
  H         3.9363612956       14.9861228461        0.5827035415
  C         4.7036639079        4.9452453676       11.3900873437
  H         3.9363678950        4.1784552769       11.3903413896
  C         6.7892372481       15.7522374471       11.3894011336
  H         7.5560255068       14.9849423063       11.3891477141
  C         6.7821056526        4.9445583020        0.5818110285
  H         7.5489026422        4.1772542296        0.5815100178
  C        17.5933452349       15.7486643899        0.5782420849
  H        18.3601434965       14.9813610493        0.5779410012
  C        17.5933453398        4.9409895986       11.3858338295
  H        18.3601349420        4.1736922580       11.3855799978
  C        15.5120270429        7.0236827599       11.3865205209
  H        14.7452387858        7.7909775945       11.3867731203
  C        15.5120231979       17.8313629385        0.5789298843
  H        14.7452268943       18.5986666295        0.5791359392
  C         4.7007836037        7.0272553362        0.5824984641
  H         3.9339865175        7.7945593914        0.5827049654
  C         4.7079196562       17.8349312458       11.3900883402
  H         3.9411298807       18.6022270848       11.3903408505
  C         6.7863558707        7.0265640640       11.3893996740
  H         7.5536514326        7.7933522709       11.3891476410
  C         6.7863615119       17.8342440082        0.5818086744
  H         7.5536655703       18.6010409015        0.5815093966
  C        17.5904641392        7.0230007522        0.5782402728
  H        18.3577698416        7.7897970765        0.5779417603
  C        17.5976004820       17.8306759201       11.3858306671
  H        18.3648970181       18.5974658727       11.3855788487
 Kr        21.3772757808       10.8041118609       10.8041118628
