     409
 i =      96, E =    -5186.5770944971
  N         2.9349338130        5.2016207115       16.0091790643
  C         1.6168803554        5.4726461151       16.2757075638
  N        13.7633451497        5.1679925804        5.1679953495
  C        12.4419359442        5.4282384462        5.4282402452
  N        19.6201164817       17.5566690690       16.0016500500
  C        20.9378493645       17.2896478322       16.2737552543
  N         8.8048968157       17.6206710597        5.1488220919
  C        10.1212180481       17.3425478578        5.4203093090
  N        19.6161308277        5.2042541661        6.7601590219
  C        20.9337429245        5.4755908732        6.4915703195
  N         8.8048950536        5.1488223558       17.6206706846
  C        10.1212152500        5.4203097950       17.3425472831
  N         2.9324488328       17.5663522051        6.7566371301
  C         1.6153167516       17.2923086486        6.4880613832
  N        13.7679227998       17.5845351867       17.5845327235
  C        12.4464330053       17.3242600018       17.3242587279
  N        15.9297567123        3.0344316606        5.1912105414
  C        16.1959683101        1.7179642675        5.4671613112
  N        15.8892967824       13.8583597403       16.0118409315
  C        16.1594820175       12.5398106641       16.2782939515
  N        15.9283589354       19.7229090021       17.5669779766
  C        16.1948714690       21.0396931952       17.2920885940
  N        15.8859224314        8.8977524158        6.7416318344
  C        16.1573020491       10.2168637065        6.4769414050
  N         6.6208892036       19.7302050090        5.1896687756
  C         6.3556051920       21.0459115029        5.4671922236
  N         6.6493999027        8.9005241637       16.0261755559
  C         6.3799383998       10.2208501804       16.2880218662
  N         6.6256156084        3.0401003915       17.5767056181
  C         6.3618765159        1.7240440395       17.2988523254
  N         6.6611845225       13.8633141480        6.7565651594
  C         6.3889737945       12.5442196177        6.4913431851
  N         5.0848052194       16.0062624942        3.0424461039
  C         5.3553509044       16.2735764549        1.7245965181
  N         5.0971354233        5.2091948599       13.8623766146
  C         5.3670691464        5.4810868602       12.5448984548
  N        17.4716893190       15.9994931276       19.7200550562
  C        17.2032144634       16.2685359709       21.0387369848
  N        17.4532029017        5.1975087758        8.9016089600
  C        17.1804525999        5.4680589105       10.2180687073
  N         5.0793968586        6.7597732133       19.7270307510
  C         5.3491905611        6.4926133303       21.0448275624
  N         5.0856616758       17.5726769184        8.9082188785
  C         5.3579849999       17.2980377919       10.2244540999
  N        17.4724405476        6.7595985306        3.0376121524
  C        17.2036106211        6.4913064677        1.7191432024
  N        17.4567646711       17.5561379388       13.8553636604
  C        17.1828035265       17.2869808967       12.5386668796
  N         5.0786543066        3.0418529462        6.7599676347
  C         5.3484400629        1.7238841571        6.4930682602
  N         5.0911317391       13.8628676129       17.5673000660
  C         5.3607745732       12.5455991428       17.2950755347
  N        17.4716782217       19.7188045034        6.7620022755
  C        17.2036958920       21.0376063670        6.4927944058
  N        17.4535134758        8.9023491818       17.5549464275
  C        17.1805972156       10.2190500562       17.2860767206
  N         5.0860567061       19.7272056810       16.0083559092
  C         5.3562982964       21.0451227040       16.2749142765
  N         5.0921397048        8.9072083951        5.2019021114
  C         5.3645791993       10.2234101217        5.4772084755
  N        17.4710200930        3.0386541888       16.0008645990
  C        17.2024008212        1.7202743205       16.2695511409
  N        17.4564944314       13.8543931893        5.1982345071
  C        17.1827222100       12.5377577692        5.4681282578
  N         2.9358388766       16.0128165101       17.5686929199
  C         1.6182654098       16.2792625333       17.2952267006
  N        13.7453989287       16.0254908513        6.7247841256
  C        12.4316100942       16.3062231725        6.4457707656
  N        19.6189568758       15.9997453123        5.2028980332
  C        20.9362796600       16.2709173968        5.4732590486
  N         8.7930302835       16.0623249394       16.0623285623
  C        10.1136251238       16.3247958269       16.3247987045
  N        19.6167761559        6.7590714622       17.5543847363
  C        20.9348149967        6.4893221336       17.2867020301
  N         8.7905321463        6.6928865166        6.6928838214
  C        10.1106308549        6.4291875146        6.4291854125
  N         2.9319965328        6.7597648270        5.2035116146
  C         1.6143974492        6.4912407098        5.4751981907
  N        13.7453966186        6.7247852056       16.0254911658
  C        12.4316077531        6.4457711007       16.3062237226
  N        15.9293927451        5.1935974336       19.7223534456
  C        16.1960936737        5.4685395077       21.0388495558
  N        15.8858544248       16.0112115671        8.8994542729
  C        16.1571300601       16.2775369821       10.2182633116
  N        15.9267951230       17.5678499066        3.0361062929
  C        16.1938329566       17.2928055974        1.7193517045
  N        15.8898215628        6.7433926889       13.8572618714
  C        16.1598909377        6.4773327687       12.5385940333
  N         6.6178829612        5.1877306248        3.0380514084
  C         6.3539223777        5.4668426540        1.7226154570
  N         6.6545060794       16.0197488849       13.8645476354
  C         6.3824729345       16.2846227260       12.5451864917
  N         6.6286170693       17.5773990338       19.7305631380
  C         6.3635089706       17.2995982239       21.0465399463
  N         6.6573564210        6.7472306706        8.8991839764
  C         6.3870630638        6.4866622397       10.2194091670
  N        19.6167777364       17.5543842481        6.7590704585
  C        20.9348168896       17.2867012609        6.4893206122
  N         8.8080150526       17.6163692287       17.6163673021
  C        10.1240152570       17.3406961603       17.3406953383
  N         2.9319970518        5.2035125582        6.7597633075
  C         1.6143983389        5.4751977116        6.4912408344
  N        13.7650256052        5.1739653863       17.5869189364
  C        12.4436755005        5.4335820146       17.3254093182
  N         2.9358391466       17.5686940409       16.0128157571
  C         1.6182646563       17.2952279395       16.2792615132
  N        13.7650274770       17.5869191499        5.1739647243
  C        12.4436775379       17.3254090739        5.4335820152
  N        19.6189549286        5.2028989267       15.9997461436
  C        20.9362781356        5.4732603785       16.2709183077
  N         8.8027117607        5.1387617580        5.1387648279
  C        10.1192456109        5.4132466724        5.4132484732
  N         6.6286159978       19.7305647633       17.5773987625
  C         6.3635075226       21.0465418930       17.2995989419
  N         6.6573563054        8.8991844114        6.7472316263
  C         6.3870602559       10.2194104108        6.4866669384
  N         6.6178827102        3.0380500091        5.1877301699
  C         6.3539212908        1.7226153790        5.4668429243
  N         6.6545065250       13.8645471600       16.0197476929
  C         6.3824729717       12.5451857294       16.2846225603
  N        15.9267940062        3.0361065301       17.5678502387
  C        16.1938320347        1.7193521478       17.2928060850
  N        15.8898229117       13.8572617161        6.7433923834
  C        16.1598921751       12.5385942059        6.4773323241
  N        15.9293939982       19.7223528356        5.1935971437
  C        16.1960946221       21.0388491410        5.4685396002
  N        15.8858529451        8.8994546847       16.0112118923
  C        16.1571288540       10.2182639620       16.2775370067
  N        17.4716769768        6.7620026311       19.7188054278
  C        17.2036950089        6.4927943507       21.0376075261
  N        17.4535150674       17.5549459956        8.9023487394
  C        17.1805984198       17.2860766489       10.2190498119
  N         5.0786542114        6.7599681410        3.0418537662
  C         5.3484409761        6.4930679680        1.7238848046
  N         5.0911314994       17.5673014818       13.8628668888
  C         5.3607746335       17.2950757667       12.5455983951
  N        17.4710210910       16.0008641497        3.0386536310
  C        17.2024016876       16.2695506745        1.7202739550
  N        17.4564930696        5.1982349075       13.8543936339
  C        17.1827209439        5.4681286943       12.5377585285
  N         5.0860575903       16.0083561362       19.7272040589
  C         5.3562997122       16.2749135504       21.0451211849
  N         5.0921411050        5.2019009463        8.9072074615
  C         5.3645826619        5.4772033281       10.2234087666
  N        17.4716891499       19.7200554825       15.9994931786
  C        17.2032141749       21.0387376821       16.2685361142
  N        17.4532035752        8.9016084432        5.1975088532
  C        17.1804536448       10.2180688986        5.4680585736
  N         5.0848025057        3.0424477556       16.0062620225
  C         5.3553486708        1.7245974502       16.2735770365
  N         5.0971368394       13.8623776965        5.2091951682
  C         5.3670662798       12.5448986572        5.4810907532
  N        17.4724405783        3.0376113392        6.7595994404
  C        17.2036107569        1.7191432480        6.4913068211
  N        17.4567644712       13.8553640919       17.5561374919
  C        17.1828029839       12.5386674311       17.2869806222
  N         5.0793985381       19.7270296862        6.7597723912
  C         5.3491910932       21.0448247251        6.4926128295
  N         5.0856599378        8.9082195657       17.5726785776
  C         5.3579838885       10.2244553116       17.2980390287
  N        19.6161300559        6.7601584454        5.2042549411
  C        20.9337446897        6.4915699241        5.4755914773
  N         8.7915574422        6.6971276295       16.0609578486
  C        10.1118731827        6.4326864675       16.3231169980
  N         2.9324472083        6.7566381982       17.5663538130
  C         1.6153137574        6.4880630858       17.2923100416
  N        13.7438498184        6.7235783923        6.7235762097
  C        12.4300590635        6.4438260231        6.4438242095
  N         2.9349359433       16.0091782949        5.2016200829
  C         1.6168817267       16.2757060979        5.4726443430
  N        13.7470429708       16.0279631483       16.0279645152
  C        12.4334576453       16.3084867452       16.3084885041
  N        19.6201162823       16.0016504568       17.5566682359
  C        20.9378496380       16.2737558525       17.2896470063
  N         8.7915599656       16.0609585239        6.6971268914
  C        10.1118740836       16.3231173195        6.4326859285
  N         6.6256176743       17.5767053691        3.0400988296
  C         6.3618788705       17.2988517920        1.7240425862
  N         6.6611832166        6.7565657885       13.8633139941
  C         6.3889762054        6.4913397194       12.5442169376
  N         6.6208882074        5.1896692121       19.7302062485
  C         6.3556046398        5.4671929438       21.0459111068
  N         6.6494014611       16.0261746487        8.9005244480
  C         6.3799396211       16.2880206076       10.2208503246
  N        15.9283585163       17.5669774640       19.7229087147
  C        16.1948714847       17.2920882684       21.0396934500
  N        15.8859216292        6.7416317225        8.8977524158
  C        16.1573009818        6.4769416886       10.2168642694
  N        15.9297563564        5.1912101093        3.0344322684
  C        16.1959680356        5.4671610970        1.7179658134
  N        15.8892968971       16.0118412976       13.8583592618
  C        16.1594825800       16.2782942104       12.5398102340
 Zn        14.5942417047       14.7257501723       14.7257498523
 Cl        13.3745624662       13.4874370845       13.4874374661
 Zn        14.6474388256        3.8871051634        3.8871061245
 Cl        13.4261740552        2.6481642886        2.6481651596
 Zn         3.7976779686       14.7157286769        3.9114694520
 Cl         2.5782838222       13.4621848342        2.6881092208
 Zn         3.7976762167        3.9114714565       14.7157278542
 Cl         2.5782821216        2.6881098505       13.4621860292
 Zn         7.9508885803        8.0019885847       14.7793708835
 Cl         9.3661337731        9.1901483052       13.7268598222
 Zn         7.9088341865       18.8945439038        3.8754556954
 Cl         9.0895376534       20.1524904785        2.6188246465
 Zn        18.7576110031        8.0530719093        3.9082711612
 Cl        19.9939346312        9.2912176818        2.6861793362
 Zn        18.7588407284       18.8442219979       14.7101903190
 Cl        19.9936319818       20.0676572305       13.4702536647
 Zn         7.9508902576       14.7793709784        8.0019880102
 Cl         9.3661357890       13.7268583339        9.1901469089
 Zn         7.9088322847        3.8754573997       18.8945435394
 Cl         9.0895346216        2.6188256382       20.1524905769
 Zn        18.7588408873       14.7101904787       18.8442212827
 Cl        19.9936322546       13.4702538570       20.0676563128
 Zn        18.7576111120        3.9082713222        8.0530721598
 Cl        19.9939345553        2.6861794907        9.2912185779
 Zn        14.5908102821        8.0215236476        8.0215233347
 Cl        13.3679507558        9.2594853986        9.2594840333
 Zn        14.6465330855       18.8720498167       18.8720496183
 Cl        13.4189291548       20.1072921035       20.1072923319
 Zn         3.7888912785        8.0518992433       18.8634224412
 Cl         2.5585669306        9.2886971557       20.0923763214
 Zn         3.7888930437       18.8634205261        8.0518982823
 Cl         2.5585687416       20.0923754210        9.2886956316
 Zn        14.5930691156       14.7246468600        8.0241415128
 Cl        13.3711700389       13.4877055904        9.2628263732
 Zn        14.6454545219        3.8914849755       18.8740862722
 Cl        13.4200465457        2.6526126631       20.1082773303
 Zn         3.7946300326       14.7186622346       18.8615797181
 Cl         2.5698464632       13.4760420090       20.0907117579
 Zn         3.7918691774        3.9086478800        8.0538257901
 Cl         2.5672272385        2.6856683041        9.3020303386
 Zn         7.9535754062        7.9869985576        7.9869988514
 Cl         9.3761073112        9.1045187950        9.1045377376
 Zn         7.9147723549       18.8912970140       18.8912954030
 Cl         9.1017779627       20.1456493696       20.1456490903
 Zn        18.7568111909        8.0544119178       18.8417453252
 Cl        19.9920872492        9.2906365361       20.0680605760
 Zn        18.7568129742       18.8417443494        8.0544115754
 Cl        19.9920889144       20.0680600202        9.2906360610
 Zn        14.5930678570        8.0241420583       14.7246468847
 Cl        13.3711697382        9.2628271794       13.4877053574
 Zn        14.6454564377       18.8740862659        3.8914844404
 Cl        13.4200477755       20.1082763530        2.6526124553
 Zn         3.7918693716        8.0538269051        3.9086480979
 Cl         2.5672279292        9.3020302851        2.6856694813
 Zn         3.7946295905       18.8615812091       14.7186614880
 Cl         2.5698459354       20.0907129029       13.4760410636
 Zn         7.9494246187       14.7706267682       14.7706261783
 Cl         9.3568390541       13.6431938776       13.6431778090
 Zn         7.9030258028        3.8644010741        3.8644024381
 Cl         9.0775826452        2.6049885882        2.6049888051
 Zn        18.7587745508       14.7107075476        3.9075659505
 Cl        19.9944010669       13.4696355530        2.6872213034
 Zn        18.7587731733        3.9075662745       14.7107079771
 Cl        19.9944004416        2.6872214705       13.4696368186
 Zn         5.8620371636        5.9603824703       16.8130710768
 Zn        16.6809645671       16.7822974695       16.7822969957
 Zn        16.6811646192        5.9655869517        5.9655874304
 Zn         5.8620420315       16.8130710076        5.9603813305
 Zn         5.8591003156        5.9562879308        5.9562877085
 Zn        16.6802407746       16.7817603305        5.9676794226
 Zn         5.8668658831       16.8106326639       16.8106312002
 Zn        16.6802386175        5.9676801715       16.7817606994
  N         3.6801962222        5.9784489579       16.7896405546
  N        14.4999956051        5.9506483531        5.9506487848
  N        18.8732392263       16.7777285336       16.7777281156
  N         8.0518185171       16.8439815304        5.9226307365
  N        18.8695568108        5.9814114442        5.9814122923
  N         8.0518154464        5.9226310833       16.8439813485
  N         3.6801975354       16.7896386348        5.9784476097
  N        14.5035136889       16.8011601261       16.8011591563
  N        16.7015081025        3.7826248394        5.9730349123
  N        16.6739461424       14.6030669111       16.7845256032
  N        16.7001792688       18.9746255303       16.7851369285
  N        16.6700727661        8.1531996181        5.9680114520
  N         5.8488841459       18.9826933707        5.9713542630
  N         5.8672062941        8.1575793829       16.8032592508
  N         5.8533760223        3.7874059832       16.7950315457
  N         5.8796376162       14.6099258445        5.9801175954
  N         5.8533778004       16.7950315001        3.7874035898
  N         5.8796339839        5.9801201442       14.6099257762
  N        16.7001789916       16.7851366922       18.9746251403
  N        16.6700722457        5.9680112576        8.1531999557
  N         5.8488822062        5.9713550109       18.9826934952
  N         5.8672088685       16.8032574014        8.1575798775
  N        16.7015080474        5.9730342160        3.7826255421
  N        16.6739462148       16.7845261370       14.6030664669
  N         5.8467163039        3.7860072212        5.9697937118
  N         5.8736191612       14.6106475594       16.7961782813
  N        16.7004412505       18.9737007608        5.9758267245
  N        16.6704862203        8.1544394722       16.7838031882
  N         5.8558609624       18.9828993665       16.7964189093
  N         5.8743367023        8.1563169376        5.9699383933
  N        16.6991241011        3.7839914644       16.7861919240
  N        16.6738006822       14.6020384919        5.9699369435
  N         3.6825173855       16.7924893151       16.7924880851
  N        14.5013904491       16.8014138472        5.9543068269
  N        18.8711116208       16.7762210128        5.9809073156
  N         8.0542156044       16.8415222038       16.8415227824
  N        18.8711099466        5.9809077863       16.7762213344
  N         8.0501962319        5.9143748135        5.9143752227
  N         3.6784077399        5.9807321798        5.9807346323
  N        14.5013883790        5.9543066942       16.8014151116
  N        16.7004391882        5.9758266114       18.9737015398
  N        16.6704878235       16.7838026550        8.1544389636
  N        16.6991257608       16.7861911542        3.7839911505
  N        16.6737995714        5.9699370062       14.6020386825
  N         5.8467187205        5.9697916177        3.7860083830
  N         5.8736186131       16.7961801813       14.6106472497
  N         5.8558610833       16.7964192397       18.9828978545
  N         5.8743331702        5.9699368503        8.1563166596
  C        11.2665784334       15.7667100892       15.7667148233
  H        11.2499803831       14.9913154431       14.9913229799
  C        11.2876008120        4.8703922895        4.8703957560
  H        11.3009701287        4.0951073047        4.0951126325
  C         0.4575319671       15.7222244282        4.9231295416
  H         0.4582953749       14.9457528772        4.1485109569
  C         0.4575298224        4.9231304588       15.7222249375
  H         0.4582939765        4.1485117235       14.9457533043
  C        11.2654190846        6.9870089192       15.7626668947
  H        11.2499478530        7.7619308184       14.9868477477
  C        11.2895069715       17.8859878094        4.8782392771
  H        11.3026163451       18.6639537261        4.1055801974
  C         0.4540244165        7.0423407989        4.9255112353
  H         0.4535532994        7.8182971343        4.1503364067
  C         0.4580182243       17.8426046419       15.7256515990
  H         0.4575194645       18.6175560056       14.9494682843
  C        11.2654213397       15.7626667126        6.9870082617
  H        11.2499498224       14.9868474448        7.7619298308
  C        11.2895049088        4.8782396411       17.8859872337
  H        11.3026138041        4.1055804668       18.6639530050
  C         0.4580180769       15.7256519651       17.8426038817
  H         0.4575197130       14.9494686380       18.6175551275
  C         0.4540256664        4.9255109806        7.0423404954
  H         0.4535540342        4.1503360809        7.8182966093
  C        11.2642662536        6.9863956542        6.9863909014
  H        11.2491423959        7.7617727089        7.7617643221
  C        11.2928181809       17.8827952285       17.8827925085
  H        11.3063260375       18.6581191950       18.6581143320
  C         0.4540425723        7.0393278680       17.8398011734
  H         0.4523171462        7.8149531831       18.6153435526
  C         0.4540441512       17.8398009748        7.0393267679
  H         0.4523191730       18.6153435932        7.8149519167
  C        15.6042395213       11.3796939767       15.7309481064
  H        14.8245414062       11.3810926162       14.9594750556
  C        15.6490104925        0.5581027945        4.9135700200
  H        14.8791826504        0.5578960445        4.1321674663
  C         4.8127680802       11.3856400424        4.9326164463
  H         4.0346764499       11.3879962775        4.1594106492
  C         4.8109125994        0.5643783222       15.7174946945
  H         4.0417673150        0.5633549473       14.9357813691
  C        15.6047047800       11.3781701013        7.0245163228
  H        14.8250013262       11.3792302207        7.7961211332
  C        15.6469793447        0.5591598111       17.8461353640
  H        14.8762763932        0.5588092179       18.6266282313
  C         4.8066254971       11.3863286740       17.8436325139
  H         4.0291741805       11.3884991891       18.6173622071
  C         4.8040819701        0.5641109481        7.0500221532
  H         4.0351938340        0.5634445379        7.8320144526
  C         6.9350314898       11.3816600856       15.7404410542
  H         7.7224369530       11.3777144234       14.9775991495
  C         6.9016685605        0.5645257277        4.9114206819
  H         7.6686380793        0.5652265129        4.1268973592
  C        17.7357310589       11.3774511835        4.9216909657
  H        18.5162695014       11.3768020966        4.1512773287
  C        17.7484842007        0.5599108994       15.7139728167
  H        18.5183394162        0.5608860296       14.9329040877
  C         6.9412954072       11.3802950204        7.0349174004
  H         7.7268217210       11.3761028638        7.7992697957
  C         6.9100441898        0.5658168474       17.8541201673
  H         7.6778913014        0.5668702170       18.6377525999
  C        17.7361775284       11.3781942064       17.8329538335
  H        18.5172682894       11.3772300454       18.6029635937
  C        17.7489194925        0.5587248389        7.0475287425
  H        18.5183147353        0.5595969340        7.8290092359
  C        15.6042402190       15.7309480376       11.3796935455
  H        14.8245421089       14.9594750119       11.3810919782
  C        15.6490095271        4.9135693988        0.5581034118
  H        14.8791817930        4.1321667781        0.5578968765
  C         4.8109150485       15.7174941871        0.5643770038
  H         4.0417701022       14.9357807809        0.5633536741
  C         4.8127726489        4.9326109319       11.3856388786
  H         4.0346809503        4.1594053558       11.3879954257
  C         6.9350320075       15.7404405213       11.3816606865
  H         7.7224377343       14.9775989545       11.3777166094
  C         6.9016683629        4.9114215435        0.5645267876
  H         7.6686378120        4.1268981125        0.5652260817
  C        17.7484849246       15.7139724996        0.5599102514
  H        18.5183401738       14.9329039355        0.5608851043
  C        17.7357303616        4.9216909288       11.3774519184
  H        18.5162688455        4.1512772452       11.3768027449
  C        15.6047040512        7.0245163388       11.3781701599
  H        14.8250006394        7.7961211828       11.3792302119
  C        15.6469798712       17.8461348646        0.5591597443
  H        14.8762768431       18.6266277396        0.5588096127
  C         4.8040817198        7.0500225635        0.5641118685
  H         4.0351932631        7.8320147561        0.5634466414
  C         4.8066259063       17.8436321879       11.3863277056
  H         4.0291747915       18.6173620969       11.3884970532
  C         6.9412989451        7.0349129442       11.3802948856
  H         7.7268245976        7.7992660264       11.3761013938
  C         6.9100468523       17.8541199188        0.5658149523
  H         7.6778940605       18.6377522296        0.5668680144
  C        17.7489186653        7.0475280197        0.5587257749
  H        18.5183140132        7.8290083644        0.5595976270
  C        17.7361782122       17.8329537732       11.3781938789
  H        18.5172690260       18.6029635834       11.3772297085
 Kr        10.2004409561       11.3685619814       11.3685622691
