     409
 i =      96, E =    -5186.5876223881
  N         2.9786873197        5.2066951284       16.0228874991
  C         1.6603478403        5.4775706501       16.2896433001
  N        13.7904835840        5.2024613748        5.2024624539
  C        12.4729821722        5.4729627971        5.4729640264
  N        19.6693422120       17.5709324854       16.0148763016
  C        20.9873549095       17.3016773701       16.2856018238
  N         8.8412469713       17.5739432872        5.2152945915
  C        10.1592413899       17.3021222697        5.4814908542
  N        19.6522068034        5.2001391923        6.7566014517
  C        20.9702265014        5.4743119115        6.4904444091
  N         8.8412457174        5.2152948397       17.5739431840
  C        10.1592408704        5.4814919838       17.3021234877
  N         2.9755876086       17.5784515935        6.7638882585
  C         1.6581341063       17.3053659953        6.4939821166
  N        13.8052370052       17.5709809483       17.5709785645
  C        12.4875819384       17.3014929921       17.3014931661
  N        15.9381937519        3.0431397150        5.2005740601
  C        16.2072601359        1.7254700323        5.4719463067
  N        15.9561827916       13.8635787439       16.0137606727
  C        16.2254905523       12.5462548551       16.2832191911
  N        15.9557445950       19.7262495854       17.5692693828
  C        16.2219854988       21.0442279154       17.2968589688
  N        15.9440849477        8.9085199092        6.7568819019
  C        16.2144276234       10.2256813969        6.4869601176
  N         6.6904290656       19.7368734781        5.2125335561
  C         6.4195640738       21.0545678464        5.4828165172
  N         6.6859422027        8.9145859292       16.0159431988
  C         6.4182547047       10.2322128329       16.2864940288
  N         6.6936431257        3.0549982106       17.5793125840
  C         6.4278535011        1.7364328805       17.3073090540
  N         6.6941300739       13.8711602202        6.7545533915
  C         6.4246543995       12.5536814280        6.4865854845
  N         5.1378710018       16.0230557772        3.0523569420
  C         5.4117373604       16.2913422173        1.7349301460
  N         5.1307565084        5.2072286951       13.8695560370
  C         5.4027305622        5.4767486849       12.5523388044
  N        17.5108539607       16.0126404683       19.7274505224
  C        17.2375619359       16.2803864186       21.0451831419
  N        17.4971953889        5.1993277363        8.9075779166
  C        17.2290753842        5.4697955755       10.2251410464
  N         5.1341388477        6.7677690272       19.7355025264
  C         5.4036796128        6.4989484741       21.0535860412
  N         5.1343791664       17.5761283109        8.9160560457
  C         5.4053003319       17.3055277950       10.2331771100
  N        17.4935874369        6.7563735432        3.0440527202
  C        17.2232426154        6.4878606352        1.7262586174
  N        17.5121688683       17.5695155962       13.8629112251
  C        17.2414070998       17.2993307719       12.5455452442
  N         5.1283779775        3.0527383290        6.7686783614
  C         5.4001626268        1.7348730936        6.4997528017
  N         5.1420818420       13.8707754419       17.5785547636
  C         5.4090705229       12.5530935714       17.3067875870
  N        17.4993780588       19.7280746888        6.7554519073
  C        17.2263465609       21.0455291515        6.4873427270
  N        17.5042773903        8.9077247622       17.5709741410
  C        17.2376795814       10.2255485471       17.2998528785
  N         5.1444919767       19.7355075694       16.0221729246
  C         5.4150804126       21.0534493605       16.2908945510
  N         5.1297970498        8.9148261921        5.2181297815
  C         5.4024716239       10.2326283428        5.4828614877
  N        17.5032330856        3.0445582138       16.0112845512
  C        17.2336241718        1.7264361107       16.2798058469
  N        17.5032092083       13.8622284825        5.2018301464
  C        17.2320506993       12.5448565070        5.4709436579
  N         2.9867320334       16.0226013026       17.5788172137
  C         1.6689395499       16.2893571595       17.3053943473
  N        13.7986857977       16.0141526389        6.7593136787
  C        12.4809955401       16.2846528029        6.4917106425
  N        19.6610565076       16.0151787584        5.2020238444
  C        20.9785362349       16.2856353667        5.4749078819
  N         8.8483152780       16.0175293039       16.0175282364
  C        10.1661233209       16.2867033035       16.2867026100
  N        19.6575782009        6.7574022500       17.5725424491
  C        20.9761824296        6.4906795622       17.3021331190
  N         8.8361804420        6.7594485351        6.7594488574
  C        10.1533666892        6.4891864637        6.4891872961
  N         2.9702273418        6.7656239749        5.2096556684
  C         1.6521916411        6.4947608040        5.4787243674
  N        13.7986847246        6.7593127762       16.0141528690
  C        12.4809947026        6.4917120578       16.2846550888
  N        15.9448502846        5.1988924143       19.7262176662
  C        16.2106592243        5.4710781049       21.0444322345
  N        15.9512133694       16.0133351402        8.9097869745
  C        16.2228106675       16.2829137355       10.2267298597
  N        15.9478053070       17.5673131323        3.0428300901
  C        16.2179142565       17.2960486344        1.7253260332
  N        15.9487327036        6.7587222038       13.8624812777
  C        16.2169148671        6.4877662943       12.5451839512
  N         6.6807748176        5.2100472178        3.0536478771
  C         6.4145564918        5.4822657543        1.7357271246
  N         6.6940453735       16.0191743252       13.8694064759
  C         6.4222685416       16.2880496109       12.5521744443
  N         6.7015266779       17.5776726719       19.7364226852
  C         6.4316188836       17.3065154629       21.0543693194
  N         6.6935137145        6.7664931992        8.9174787117
  C         6.4244890619        6.4928061489       10.2341706912
  N        19.6575782180       17.5725420413        6.7574022381
  C        20.9761837204       17.3021315800        6.4906800018
  N         8.8499496748       17.5735697074       17.5735680389
  C        10.1672677891       17.3027328186       17.3027317448
  N         2.9702272196        5.2096552693        6.7656239762
  C         1.6521921080        5.4787235895        6.4947613556
  N        13.7968725400        5.2014478490       17.5686292108
  C        12.4796709228        5.4748223001       17.2998490835
  N         2.9867320609       17.5788181742       16.0226006611
  C         1.6689400397       17.3053952731       16.2893565446
  N        13.7968737693       17.5686288585        5.2014489208
  C        12.4796713371       17.2998466270        5.4748212403
  N        19.6610564474        5.2020236022       16.0151792042
  C        20.9785354909        5.4749069218       16.2856365675
  N         8.8342788971        5.2038433704        5.2038439322
  C        10.1522279594        5.4732720256        5.4732730154
  N         6.7015268492       19.7364231503       17.5776715401
  C         6.4316185085       21.0543698192       17.3065147999
  N         6.6935141747        8.9174786969        6.7664931369
  C         6.4244899125       10.2341704654        6.4928057400
  N         6.6807743047        3.0536477854        5.2100473335
  C         6.4145561639        1.7357267388        5.4822656178
  N         6.6940447866       13.8694065998       16.0191742542
  C         6.4222679290       12.5521745024       16.2880492302
  N        15.9478045314        3.0428288592       17.5673138660
  C        16.2179122419        1.7253261779       17.2960486840
  N        15.9487312998       13.8624816695        6.7587210904
  C        16.2169161549       12.5451828787        6.4877671339
  N        15.9448501623       19.7262160351        5.1988941795
  C        16.2106618120       21.0444317231        5.4710774075
  N        15.9512162095        8.9097871612       16.0133317429
  C        16.2228068797       10.2267291168       16.2829167139
  N        17.4993780238        6.7554505873       19.7280760214
  C        17.2263439874        6.4873437453       21.0455300385
  N        17.5042747037       17.5709772626        8.9077243793
  C        17.2376831824       17.2998495824       10.2255489526
  N         5.1283784262        6.7686781580        3.0527388043
  C         5.4001628126        6.4997530020        1.7348728873
  N         5.1420826320       17.5785549057       13.8707750784
  C         5.4090713935       17.3067878595       12.5530936604
  N        17.5032336500       16.0112840495        3.0445588126
  C        17.2336258978       16.2798060389        1.7264363352
  N        17.5032107774        5.2018313572       13.8622281925
  C        17.2320498206        5.4709425404       12.5448570578
  N         5.1444917844       16.0221739280       19.7355070808
  C         5.4150809567       16.2908952157       21.0534491820
  N         5.1297969764        5.2181294395        8.9148261866
  C         5.4024708833        5.4828615435       10.2326279114
  N        17.5108526856       19.7274501300       16.0126396328
  C        17.2375616642       21.0451834636       16.2803870355
  N        17.4971948261        8.9075773756        5.1993277105
  C        17.2290747772       10.2251401021        5.4697956788
  N         5.1378695504        3.0523573795       16.0230562793
  C         5.4117360487        1.7349305876       16.2913423327
  N         5.1307570139       13.8695562217        5.2072282419
  C         5.4027312504       12.5523391710        5.4767479956
  N        17.4935872689        3.0440517000        6.7563745936
  C        17.2232432603        1.7262579037        6.4878607541
  N        17.5121707139       13.8629110247       17.5695135510
  C        17.2414056980       12.5455451621       17.2993326183
  N         5.1341400451       19.7355020428        6.7677678779
  C         5.4036805482       21.0535862627        6.4989472733
  N         5.1343784429        8.9160562550       17.5761277660
  C         5.4052994731       10.2331769428       17.3055272919
  N        19.6522063804        6.7566002985        5.2001404831
  C        20.9702263790        6.4904434385        5.4743129816
  N         8.8434089757        6.7708601128       16.0179932876
  C        10.1605624142        6.4975678672       16.2862535607
  N         2.9755866030        6.7638894372       17.5784512977
  C         1.6581331466        6.4939829053       17.3053666389
  N        13.7912741167        6.7588193243        6.7588199700
  C        12.4735847776        6.4890221723        6.4890231242
  N         2.9786876851       16.0228880652        5.2066940156
  C         1.6603489061       16.2896431951        5.4775703441
  N        13.8036656185       16.0149871177       16.0149849914
  C        12.4865111169       16.2854920809       16.2854925503
  N        19.6693423906       16.0148761773       17.5709319641
  C        20.9873542121       16.2856015611       17.3016772168
  N         8.8434095618       16.0179932622        6.7708594723
  C        10.1605635488       16.2862526102        6.4975660750
  N         6.6936444911       17.5793121836        3.0549974962
  C         6.4278546598       17.3073090017        1.7364324256
  N         6.6941294059        6.7545538411       13.8711599645
  C         6.4246537011        6.4865862888       12.5536817361
  N         6.6904275934        5.2125346715       19.7368735289
  C         6.4195630245        5.4828176571       21.0545683845
  N         6.6859430956       16.0159435916        8.9145855996
  C         6.4182555749       16.2864945126       10.2322130016
  N        15.9557460022       17.5692698577       19.7262497983
  C        16.2219862381       17.2968578491       21.0442281332
  N        15.9440851650        6.7568821840        8.9085204668
  C        16.2144276408        6.4869604924       10.2256824808
  N        15.9381938823        5.2005728660        3.0431406413
  C        16.2072591051        5.4719456604        1.7254706610
  N        15.9561811189       16.0137625946       13.8635786970
  C        16.2254923725       16.2832176370       12.5462555816
 Zn        14.6623965330       14.7211851840       14.7211845522
 Cl        13.4268792710       13.4904649795       13.4904642659
 Zn        14.6503784383        3.9066824469        3.9066834811
 Cl        13.4086177256        2.6789772835        2.6789787171
 Zn         3.8424392623       14.7307655777        3.9110398827
 Cl         2.6078154377       13.4984448570        2.6811161230
 Zn         3.8424381004        3.9110405680       14.7307657589
 Cl         2.6078141811        2.6811169682       13.4984451625
 Zn         7.9787719876        8.0577567252       14.7218989769
 Cl         9.1797239633        9.2984040973       13.4661958927
 Zn         7.9838889023       18.8719139476        3.9248031851
 Cl         9.2253041378       20.0957559854        2.6925444613
 Zn        18.7851380571        8.0480933190        3.9045659975
 Cl        20.0174394804        9.2813022991        2.6726275670
 Zn        18.8060853344       18.8646750548       14.7222955408
 Cl        20.0355201604       20.0922260020       13.4826231246
 Zn         7.9787729942       14.7218987578        8.0577573734
 Cl         9.1797251329       13.4661957202        9.2984038494
 Zn         7.9838873215        3.9248027991       18.8719139063
 Cl         9.2253028389        2.6925452085       20.0957559778
 Zn        18.8060859497       14.7222960263       18.8646733564
 Cl        20.0355205816       13.4826234074       20.0922250825
 Zn        18.7851381669        3.9045659167        8.0480947595
 Cl        20.0174390278        2.6726270760        9.2813040489
 Zn        14.6539925073        8.0525618318        8.0525624215
 Cl        13.4316238650        9.2898108351        9.2898110112
 Zn        14.6658774473       18.8652031724       18.8652031294
 Cl        13.4299635342       20.0956242817       20.0956242227
 Zn         3.8410912615        8.0571341165       18.8712242477
 Cl         2.6130623046        9.2965664598       20.1007736358
 Zn         3.8410913587       18.8712239853        8.0571344570
 Cl         2.6130622348       20.1007737451        9.2965655379
 Zn        14.6586319294       14.7206136790        8.0536015913
 Cl        13.4203571236       13.4926486143        9.2844871515
 Zn        14.6578448541        3.9041587754       18.8614772313
 Cl        13.4180754972        2.6747482749       20.0893138857
 Zn         3.8495302519       14.7300090753       18.8732061953
 Cl         2.6185833808       13.4946214863       20.1036248019
 Zn         3.8383327431        3.9210889840        8.0582510991
 Cl         2.6092996282        2.6924854788        9.2984331249
 Zn         7.9903158255        8.0565356649        8.0565352469
 Cl         9.2855868244        9.2560285443        9.2560288329
 Zn         7.9944731406       18.8699692140       18.8699687938
 Cl         9.2373539406       20.0967705402       20.0967697477
 Zn        18.7901556983        8.0481617445       18.8684754774
 Cl        20.0253223994        9.2828081979       20.0961173345
 Zn        18.7901555100       18.8684745113        8.0481619973
 Cl        20.0253232174       20.0961164183        9.2828080434
 Zn        14.6586313332        8.0536017606       14.7206133389
 Cl        13.4203560968        9.2844868821       13.4926485397
 Zn        14.6578459190       18.8614759633        3.9041589671
 Cl        13.4180769635       20.0893128903        2.6747489051
 Zn         3.8383316587        8.0582516532        3.9210896456
 Cl         2.6092992600        9.2984329031        2.6924856482
 Zn         3.8495302766       18.8732057138       14.7300091604
 Cl         2.6185841180       20.1036246568       13.4946202300
 Zn         7.9881784833       14.7238739109       14.7238740769
 Cl         9.2064208180       13.4845115025       13.4845119768
 Zn         7.9665382278        3.9122741388        3.9122730126
 Cl         9.2020514611        2.6812066948        2.6812068268
 Zn        18.7959800826       14.7217016836        3.9080808708
 Cl        20.0250985723       13.4840511344        2.6777448261
 Zn        18.7959806343        3.9080792612       14.7217016092
 Cl        20.0250987377        2.6777432619       13.4840511412
 Zn         5.9059109347        5.9906164475       16.8029756329
 Zn        16.7318743016       16.7900876050       16.7900874675
 Zn        16.7183349737        5.9763314541        5.9763337427
 Zn         5.9059118533       16.8029758135        5.9906156113
 Zn         5.9034407770        5.9916220509        5.9916223612
 Zn        16.7241478944       16.7894338651        5.9762961765
 Zn         5.9168744169       16.8039662366       16.8039656630
 Zn        16.7241472958        5.9762941136       16.7894348072
  N         3.7234016197        5.9849518312       16.8023209987
  N        14.5371468023        5.9804120777        5.9804129306
  N        18.9227143242       16.7925213055       16.7925224712
  N         8.0955529405       16.7969606256        5.9947045787
  N        18.9058958381        5.9761688950        5.9761702971
  N         8.0955519961        5.9947056739       16.7969594517
  N         3.7234027771       16.8023208804        5.9849501055
  N        14.5508310660       16.7927113388       16.7927121525
  N        16.7164104890        3.7902217147        5.9776249731
  N        16.7344177345       14.6096042328       16.7917460423
  N        16.7351536257       18.9801456137       16.7923700683
  N        16.7201310995        8.1614019516        5.9780131917
  N         5.9124744781       18.9895703057        5.9898290435
  N         5.9094096876        8.1690237532       16.7960734158
  N         5.9134343756        3.8002774154       16.8023483777
  N         5.9116127244       14.6170609163        5.9811215170
  N         5.9134366216       16.8023480411        3.8002766279
  N         5.9116127787        5.9811223392       14.6170607978
  N        16.7351542298       16.7923686611       18.9801458567
  N        16.7201310406        5.9780125730        8.1614031556
  N         5.9124722287        5.9898308315       18.9895704495
  N         5.9094101100       16.7960735515        8.1690234540
  N        16.7164106853        5.9776234450        3.7902225629
  N        16.7344172111       16.7917453247       14.6096049239
  N         5.9031986552        3.7999805547        5.9883102298
  N         5.9193616633       14.6167820120       16.7996012426
  N        16.7241759175       18.9803330343        5.9760055245
  N        16.7264236888        8.1620441366       16.7926229313
  N         5.9226025947       18.9895059909       16.8006030832
  N         5.9103205471        8.1698048558        5.9944715819
  N        16.7255406472        3.7902759276       16.7900877668
  N        16.7266756933       14.6087825821        5.9807878864
  N         3.7331517455       16.8025702895       16.8025690286
  N        14.5439953182       16.7909152734        5.9789629273
  N        18.9129392918       16.7940030648        5.9780865042
  N         8.1026075934       16.7960487357       16.7960483317
  N        18.9129379657        5.9780852548       16.7940048205
  N         8.0887641259        5.9823031152        5.9823032168
  N         3.7167062221        5.9882243983        5.9882256269
  N        14.5439945989        5.9789623533       16.7909168551
  N        16.7241734353        5.9760053673       18.9803337330
  N        16.7264255892       16.7926215872        8.1620450930
  N        16.7255429296       16.7900867060        3.7902760385
  N        16.7266739525        5.9807866205       14.6087836537
  N         5.9031994092        5.9883096417        3.7999808218
  N         5.9193615368       16.7996013114       14.6167817778
  N         5.9226028283       16.8006043905       18.9895053726
  N         5.9103201610        5.9944706210        8.1698050084
  C        11.3257237245       15.7355319186       15.7355313081
  H        11.3255876541       14.9599424630       14.9599416950
  C        11.3123482175        4.9227864643        4.9227877580
  H        11.3119471437        4.1473289318        4.1473303784
  C         0.5009777263       15.7368985633        4.9267525578
  H         0.5040801047       14.9609944295        4.1515693565
  C         0.5009778411        4.9267523570       15.7368991194
  H         0.5040799524        4.1515690939       14.9609948384
  C        11.3216852535        7.0451834399       15.7349410883
  H        11.3244844140        7.8207111835       14.9593549776
  C        11.3184074249       17.8509206084        4.9272382743
  H        11.3166419312       18.6258358298        4.1510548950
  C         0.4912640515        7.0434511489        4.9271558371
  H         0.4915249106        7.8197797802        4.1524137912
  C         0.5081497189       17.8533069263       15.7368663940
  H         0.5084428039       18.6286868924       14.9611469016
  C        11.3216863466       15.7349391538        7.0451820646
  H        11.3244851575       14.9593531552        7.8207100880
  C        11.3184063476        4.9272393795       17.8509222481
  H        11.3166400877        4.1510556820       18.6258372252
  C         0.5081493586       15.7368664811       17.8533061050
  H         0.5084429101       14.9611469192       18.6286857900
  C         0.4912645569        4.9271550779        7.0434516717
  H         0.4915255523        4.1524131825        7.8197801675
  C        11.3136749077        7.0397141196        7.0397150026
  H        11.3115695687        7.8153955452        7.8153963587
  C        11.3279823063       17.8525403300       17.8525390088
  H        11.3287039963       18.6280805432       18.6280786180
  C         0.4956724009        7.0431348590       17.8531679260
  H         0.4932730305        7.8192450272       18.6281320493
  C         0.4956726007       17.8531673388        7.0431349381
  H         0.4932739534       18.6281316474        7.8192452635
  C        15.6737757500       11.3871367762       15.7319589787
  H        14.8981923605       11.3880657994       14.9563402875
  C        15.6577026031        0.5643688506        4.9219715242
  H        14.8813883192        0.5635603594        4.1471839311
  C         4.8491278016       11.3912050199        4.9319286059
  H         4.0692755794       11.3888154704        4.1606933421
  C         4.8635358417        0.5735354908       15.7406215313
  H         4.0875605215        0.5724484264       14.9654523351
  C        15.6652096675       11.3857972722        7.0384693868
  H        14.8901074833       11.3859849220        7.8145917701
  C        15.6690256393        0.5640500882       17.8461589052
  H        14.8930519613        0.5630004970       18.6212946078
  C         4.8580286967       11.3937149168       17.8580384928
  H         4.0844449563       11.3943402323       18.6354838740
  C         4.8524111695        0.5733016782        7.0504243636
  H         4.0775893181        0.5715689140        7.8266638291
  C         6.9688407053       11.3916111145       15.7343804418
  H         7.7412381628       11.3905356010       14.9555367400
  C         6.9673142686        0.5761729359        4.9320795531
  H         7.7423909842        0.5783985793        4.1560098869
  C        17.7805647417       11.3845552064        4.9190479113
  H        18.5553073343       11.3838757606        4.1427100348
  C        17.7849299880        0.5666021517       15.7287948024
  H        18.5595660262        0.5682827257       14.9523172931
  C         6.9803143878       11.3951965520        7.0352431210
  H         7.7630182630       11.3988618104        7.8033991861
  C         6.9805997126        0.5761295339       17.8562772165
  H         7.7566373285        0.5774807608       18.6312798755
  C        17.7901363951       11.3847786288       17.8502037874
  H        18.5655031772       11.3835956015       18.6259197186
  C        17.7746474071        0.5665182691        7.0385697287
  H        18.5502573920        0.5679708687        7.8140907647
  C        15.6737774620       15.7319576443       11.3871364831
  H        14.8981930758       14.9563398338       11.3880658680
  C        15.6577012833        4.9219714891        0.5643701725
  H        14.8813874464        4.1471836717        0.5635617006
  C         4.8635366782       15.7406217493        0.5735352386
  H         4.0875613103       14.9654525060        0.5724481120
  C         4.8491270400        4.9319290601       11.3912045766
  H         4.0692748712        4.1606937714       11.3888153164
  C         6.9688416819       15.7343808923       11.3916109357
  H         7.7412392062       14.9555371155       11.3905355810
  C         6.9673140320        4.9320801676        0.5761730942
  H         7.7423908329        4.1560104574        0.5783980328
  C        17.7849310785       15.7287948356        0.5666028346
  H        18.5595670418       14.9523177185        0.5682829871
  C        17.7805651914        4.9190480154       11.3845546488
  H        18.5553081132        4.1427104935       11.3838760306
  C        15.6652097937        7.0384694690       11.3857969751
  H        14.8901078978        7.8145918819       11.3859851580
  C        15.6690268707       17.8461588884        0.5640510015
  H        14.8930532025       18.6212949910        0.5630015551
  C         4.8524108573        7.0504251445        0.5733019595
  H         4.0775890809        7.8266646401        0.5715696341
  C         4.8580297429       17.8580390517       11.3937148808
  H         4.0844460647       18.6354844602       11.3943403369
  C         6.9803133932        7.0352438645       11.3951966528
  H         7.7630171712        7.8033999326       11.3988618694
  C         6.9806002978       17.8562775885        0.5761290696
  H         7.7566377617       18.6312802294        0.5774800166
  C        17.7746459116        7.0385698620        0.5665196338
  H        18.5502561978        7.8140906292        0.5679718943
  C        17.7901381465       17.8502024874       11.3847780616
  H        18.5655043017       18.6259195147       11.3835958820
 Kr         6.1750383927       10.7881845410       10.7881844416
