     409
 i =      96, E =    -5186.5848961766
  N         3.0066074438        5.2079795659       16.0216801582
  C         1.6882722800        5.4788434930       16.2887773315
  N        13.8150241874        5.2047026049        5.2047032584
  C        12.4978109274        5.4757435410        5.4757295567
  N        19.6930442530       17.5725587737       16.0160460021
  C        21.0111275661       17.3025023396       16.2863634087
  N         8.8663092376       17.5763227177        5.2090072466
  C        10.1838589726       17.3042637570        5.4768115773
  N        19.6811671421        5.2032504802        6.7594120411
  C        20.9988986862        5.4768089509        6.4928608252
  N         8.8663068683        5.2090072373       17.5763217646
  C        10.1838561358        5.4768181172       17.3042622882
  N         3.0040926417       17.5775059746        6.7644719282
  C         1.6865359180       17.3047902754        6.4949503615
  N        13.8285316425       17.5733473385       17.5733488828
  C        12.5104075102       17.3041248620       17.3041263259
  N        15.9654123427        3.0464664647        5.2034610439
  C        16.2349394478        1.7286070672        5.4746946206
  N        15.9770951861       13.8648523183       16.0155793095
  C        16.2462471404       12.5473652271       16.2857317305
  N        15.9794787949       19.7290568350       17.5710697621
  C        16.2452881102       21.0471807401       17.2984145564
  N        15.9690607999        8.9103057526        6.7586956909
  C        16.2391910433       10.2275514104        6.4882679579
  N         6.7158764198       19.7372876113        5.2097410547
  C         6.4450576602       21.0548433336        5.4801301485
  N         6.7158429983        8.9150802751       16.0198917943
  C         6.4457581616       10.2324060851       16.2888021349
  N         6.7165428176        3.0535683806       17.5793818502
  C         6.4498560522        1.7355109748       17.3074328021
  N         6.7103520152       13.8689350419        6.7682604568
  C         6.4373100846       12.5519238298        6.5007517506
  N         5.1628492322       16.0216851161        3.0523536832
  C         5.4349280201       16.2903748611        1.7347022416
  N         5.1577324094        5.2102871039       13.8705621311
  C         5.4231575809        5.4830416905       12.5528365133
  N        17.5339152020       16.0140533204       19.7303309946
  C        17.2606620401       16.2818218385       21.0480624382
  N        17.5245898980        5.2023872040        8.9094309911
  C        17.2550359303        5.4720835567       10.2270060454
  N         5.1603546012        6.7658381036       19.7357875476
  C         5.4293040664        6.4964101123       21.0538537613
  N         5.1615272981       17.5772600652        8.9156495966
  C         5.4309083924       17.3060114146       10.2329236909
  N        17.5227763921        6.7582713542        3.0470790137
  C        17.2517093451        6.4899825404        1.7292235689
  N        17.5335569477       17.5709674875       13.8643731485
  C        17.2625443087       17.3014635476       12.5469642020
  N         5.1543113851        3.0527832363        6.7655738744
  C         5.4261765818        1.7350853796        6.4964238318
  N         5.1657515347       13.8702777534       17.5772634628
  C         5.4328776811       12.5526220617       17.3059186991
  N        17.5276768377       19.7304033031        6.7580362899
  C        17.2542926493       21.0479478745        6.4899492629
  N        17.5298207763        8.9093145375       17.5724945234
  C        17.2607183002       10.2268765623       17.3021071525
  N         5.1680796580       19.7356109074       16.0209750644
  C         5.4376705006       21.0535788973       16.2900830071
  N         5.1521339453        8.9158183638        5.2110022744
  C         5.4204956828       10.2330896272        5.4833615689
  N        17.5291669965        3.0475198498       16.0145372629
  C        17.2580482585        1.7294719450       16.2821698821
  N        17.5289378340       13.8644246401        5.2038250309
  C        17.2571161430       12.5470521285        5.4726376153
  N         3.0113944663       16.0221788087       17.5786067545
  C         1.6933506941       16.2892937318       17.3053850938
  N        13.8218641343       16.0162626014        6.7592491938
  C        12.5043405953       16.2863791113        6.4899880208
  N        19.6888807980       16.0162031643        5.2039457155
  C        21.0064645470       16.2859951565        5.4765429683
  N         8.8706032810       16.0198866561       16.0198885752
  C        10.1883604190       16.2893676377       16.2893681266
  N        19.6866184454        6.7593335968       17.5735458950
  C        21.0048665665        6.4921895602       17.3025411310
  N         8.8623516682        6.7651370978        6.7651382854
  C        10.1793151974        6.4941978955        6.4941810782
  N         2.9978807412        6.7655290385        5.2097345138
  C         1.6800950184        6.4959199581        5.4799753889
  N        13.8218626655        6.7592509596       16.0162627201
  C        12.5043393503        6.4899925094       16.2863801464
  N        15.9714622989        5.2022964949       19.7286942848
  C        16.2379389622        5.4742735042       21.0469345144
  N        15.9741607271       16.0163028804        8.9099652800
  C        16.2447527093       16.2860748307       10.2272673990
  N        15.9729438947       17.5703194317        3.0463215621
  C        16.2420609339       17.2982095139        1.7286267122
  N        15.9724921617        6.7592166976       13.8650473250
  C        16.2409247179        6.4884756130       12.5475678553
  N         6.7096718597        5.2093592006        3.0539543567
  C         6.4418286053        5.4801587012        1.7359772519
  N         6.7184093758       16.0193209223       13.8692054482
  C         6.4471939429       16.2884023030       12.5520010675
  N         6.7220130185       17.5785488764       19.7366938012
  C         6.4526673238       17.3070542919       21.0543483002
  N         6.7067009391        6.7681041694        8.9154615351
  C         6.4352076021        6.5006119543       10.2326267043
  N        19.6866158180       17.5735411893        6.7593358567
  C        21.0048644549       17.3025366369        6.4921849916
  N         8.8720858902       17.5763278039       17.5763329789
  C        10.1894794610       17.3054353779       17.3054391103
  N         2.9979006122        5.2097444126        6.7655158878
  C         1.6801018794        5.4799854105        6.4959079335
  N        13.8218437527        5.2034684441       17.5719345562
  C        12.5042320445        5.4742441163       17.3025449468
  N         3.0113958518       17.5786090311       16.0221782246
  C         1.6933537401       17.3053839319       16.2892959627
  N        13.8218461109       17.5719310409        5.2034698265
  C        12.5042338401       17.3025377216        5.4742459000
  N        19.6888819594        5.2039446791       16.0161993250
  C        21.0064628886        5.4765462403       16.2859910894
  N         8.8599304347        5.2092724067        5.2092742547
  C        10.1777192552        5.4782435188        5.4782274147
  N         6.7220136460       19.7366930337       17.5785480090
  C         6.4526663041       21.0543469931       17.3070559849
  N         6.7066901744        8.9154493632        6.7680967151
  C         6.4352044132       10.2326115783        6.5005875943
  N         6.7096782610        3.0539433655        5.2093515223
  C         6.4418351747        1.7359628837        5.4801429734
  N         6.7184045469       13.8692073520       16.0193234382
  C         6.4471868301       12.5520019604       16.2884007236
  N        15.9729429758        3.0463213209       17.5703175390
  C        16.2420547355        1.7286240713       17.2982098217
  N        15.9724958174       13.8650482476        6.7592146213
  C        16.2409246998       12.5475688442        6.4884682310
  N        15.9714656043       19.7286877560        5.2023019131
  C        16.2379435243       21.0469308583        5.4742783487
  N        15.9741573256        8.9099659583       16.0163013113
  C        16.2447479191       10.2272674181       16.2860744319
  N        17.5276692180        6.7580382749       19.7304056387
  C        17.2542899279        6.4899549362       21.0479525111
  N        17.5298209818       17.5724960117        8.9093101321
  C        17.2607166809       17.3021025712       10.2268721363
  N         5.1543020535        6.7655771885        3.0527743377
  C         5.4261767874        6.4964279723        1.7350934397
  N         5.1657567302       17.5772586622       13.8702847616
  C         5.4328860154       17.3059170660       12.5526257101
  N        17.5291658952       16.0145400221        3.0475206319
  C        17.2580494214       16.2821743103        1.7294727538
  N        17.5289366795        5.2038267326       13.8644283737
  C        17.2571207446        5.4726413189       12.5470540114
  N         5.1680812128       16.0209774160       19.7356118142
  C         5.4376713171       16.2900811070       21.0535800571
  N         5.1521367970        5.2110083397        8.9158076388
  C         5.4204812615        5.4833729194       10.2330978669
  N        17.5339107263       19.7303309494       16.0140548269
  C        17.2606589043       21.0480637124       16.2818188211
  N        17.5245884296        8.9094276091        5.2023882926
  C        17.2550300479       10.2270029590        5.4720798469
  N         5.1628459615        3.0523517946       16.0216887695
  C         5.4349272272        1.7347020032       16.2903815740
  N         5.1577373812       13.8705636327        5.2102873771
  C         5.4231726310       12.5528357117        5.4830322969
  N        17.5227771945        3.0470773319        6.7582706677
  C        17.2517131522        1.7292195379        6.4899814204
  N        17.5335534843       13.8643762887       17.5709686090
  C        17.2625369335       12.5469679327       17.3014625329
  N         5.1603543038       19.7357892187        6.7658425385
  C         5.4292951197       21.0538533497        6.4964165637
  N         5.1615297449        8.9156424237       17.5772578457
  C         5.4309086907       10.2329202577       17.3060036484
  N        19.6811629080        6.7594101434        5.2032539813
  C        20.9989009457        6.4928596822        5.4768111831
  N         8.8667174053        6.7629112060       16.0178953363
  C        10.1840608322        6.4917579931       16.2871126850
  N         3.0040936556        6.7644725853       17.5775097980
  C         1.6865400176        6.4949473384       17.3047842868
  N        13.8170912021        6.7604815542        6.7604821688
  C        12.4992926859        6.4917515334        6.4917373363
  N         3.0066042536       16.0216760299        5.2079700501
  C         1.6882692690       16.2887745844        5.4788308833
  N        13.8262625711       16.0174139546       16.0174090997
  C        12.5090650913       16.2881470982       16.2881444484
  N        19.6930460102       16.0160393825       17.5725630415
  C        21.0111258761       16.2863621871       17.3025020240
  N         8.8667199667       16.0178916554        6.7629144351
  C        10.1840622586       16.2871036908        6.4917611388
  N         6.7165487931       17.5793805015        3.0535650741
  C         6.4498659152       17.3074349189        1.7355072776
  N         6.7103448610        6.7682528673       13.8689472848
  C         6.4372948033        6.5007569818       12.5519260067
  N         6.7158781143        5.2097402056       19.7372932098
  C         6.4450557717        5.4801388238       21.0548429322
  N         6.7158448628       16.0198930982        8.9150819702
  C         6.4457655681       16.2888043611       10.2324063069
  N        15.9794822205       17.5710693154       19.7290569255
  C        16.2452919684       17.2984169576       21.0471825118
  N        15.9690623424        6.7586943526        8.9103074467
  C        16.2391961177        6.4882719993       10.2275541030
  N        15.9654189453        5.2034579354        3.0464727386
  C        16.2349420262        5.4746939743        1.7286111673
  N        15.9770981830       16.0155763850       13.8648522147
  C        16.2462523943       16.2857295802       12.5473661864
 Zn        14.6819314196       14.7229701880       14.7229683285
 Cl        13.4495153436       13.4908330780       13.4908351245
 Zn        14.6724069816        3.9095391422        3.9095434726
 Cl        13.4336804785        2.6806481511        2.6806548365
 Zn         3.8709445939       14.7291920452        3.9128881487
 Cl         2.6366923368       13.4946696025        2.6844307873
 Zn         3.8709484807        3.9128903685       14.7291954304
 Cl         2.6366913187        2.6844313409       13.4946704135
 Zn         8.0068681288        8.0572005804       14.7241089817
 Cl         9.2366910777        9.2900879853       13.4900253305
 Zn         8.0062282128       18.8735070986        3.9172243000
 Cl         9.2447420875       20.1007579298        2.6858945085
 Zn        18.8182160795        8.0502447418        3.9075734262
 Cl        20.0475536549        9.2858564097        2.6759203773
 Zn        18.8265166180       18.8662404277       14.7232328809
 Cl        20.0573743895       20.0936792390       13.4845098002
 Zn         8.0068687275       14.7241056156        8.0572036180
 Cl         9.2366935503       13.4900220516        9.2900862914
 Zn         8.0062265662        3.9172263364       18.8735058772
 Cl         9.2447404739        2.6858940809       20.1007610324
 Zn        18.8265164904       14.7232346044       18.8662356919
 Cl        20.0573735687       13.4845105074       20.0936786937
 Zn        18.8182170015        3.9075723529        8.0502486625
 Cl        20.0475578856        2.6759217348        9.2858620428
 Zn        14.6749544550        8.0537609019        8.0537629322
 Cl        13.4445514753        9.2868497305        9.2868499003
 Zn        14.6924656596       18.8673932523       18.8673920520
 Cl        13.4540418796       20.0968837218       20.0968857223
 Zn         3.8684896812        8.0564052446       18.8717103310
 Cl         2.6384526670        9.2947578881       20.1003817610
 Zn         3.8684892053       18.8717113934        8.0564097649
 Cl         2.6384511043       20.1003809226        9.2947597260
 Zn        14.6784595843       14.7228243653        8.0533436039
 Cl        13.4470488624       13.4904942283        9.2862272609
 Zn        14.6805509743        3.9075986319       18.8652121396
 Cl        13.4431930111        2.6772830115       20.0942634256
 Zn         3.8778673426       14.7288467537       18.8727432256
 Cl         2.6441898137       13.4940241420       20.1017369384
 Zn         3.8595246550        3.9151053850        8.0563469047
 Cl         2.6299947115        2.6858240781        9.2943072668
 Zn         8.0031149007        8.0582550372        8.0582579973
 Cl         9.2302272631        9.2930838191        9.2930821542
 Zn         8.0110840640       18.8718601172       18.8718634269
 Cl         9.2529128803       20.0994677263       20.0994652963
 Zn        18.8217371726        8.0501989932       18.8689273748
 Cl        20.0534009142        9.2867399318       20.0974924153
 Zn        18.8217366812       18.8689233788        8.0501946931
 Cl        20.0534028398       20.0974926095        9.2867379781
 Zn        14.6784578212        8.0533454814       14.7228228228
 Cl        13.4470478395        9.2862286679       13.4904936534
 Zn        14.6805515700       18.8652065396        3.9075991932
 Cl        13.4431970284       20.0942641554        2.6772839537
 Zn         3.8595258399        8.0563429799        3.9151164568
 Cl         2.6299933236        9.2943035571        2.6858275400
 Zn         3.8778682021       18.8727408557       14.7288489557
 Cl         2.6441904366       20.1017344985       13.4940234564
 Zn         8.0098727454       14.7251498814       14.7251494457
 Cl         9.2404638747       13.4919850487       13.4919869569
 Zn         8.0008814973        3.9154011316        3.9154062383
 Cl         9.2366967561        2.6848260097        2.6848251398
 Zn        18.8235720663       14.7235366594        3.9101419711
 Cl        20.0517049926       13.4855605030        2.6794096650
 Zn        18.8235718684        3.9101400223       14.7235383134
 Cl        20.0517033574        2.6794073326       13.4855604570
 Zn         5.9410688062        5.9902056686       16.8041613879
 Zn        16.7627121395       16.7923798628       16.7923809233
 Zn        16.7496198318        5.9808437648        5.9808520109
 Zn         5.9410673817       16.8041535366        5.9902078507
 Zn         5.9341550279        5.9906816454        5.9906820089
 Zn        16.7579056326       16.7932135325        5.9810869091
 Zn         5.9456527116       16.8040428623       16.8040458706
 Zn        16.7579047729        5.9810864521       16.7932159322
  N         3.7518334408        5.9856967334       16.8010589512
  N        14.5626843413        5.9821377036        5.9821441411
  N        18.9467758293       16.7942340349       16.7942260887
  N         8.1202500691       16.7979532305        5.9869826885
  N        18.9346534307        5.9794118766        5.9794129442
  N         8.1202543116        5.9869817284       16.7979551295
  N         3.7518395369       16.8010645345        5.9857015970
  N        14.5740377151       16.7948963936       16.7948941814
  N        16.7446711285        3.7933618594        5.9800122645
  N        16.7558507388       14.6109945235       16.7930076441
  N        16.7588355442       18.9829143743       16.7940067583
  N        16.7466742929        8.1634046304        5.9808682744
  N         5.9385787862       18.9899571250        5.9875862976
  N         5.9390537278        8.1690579913       16.7991271561
  N         5.9381781580        3.7997147225       16.8015115495
  N         5.9362200278       14.6165763495        5.9878612056
  N         5.9381741146       16.8015051914        3.7997169832
  N         5.9362361936        5.9878656281       14.6165705648
  N        16.7588349473       16.7940086239       18.9829137417
  N        16.7466749323        5.9808656717        8.1634072352
  N         5.9385767922        5.9875907530       18.9899584799
  N         5.9390528819       16.7991190831        8.1690571269
  N        16.7446649129        5.9800013160        3.7933609983
  N        16.7558516984       16.7930048848       14.6109971792
  N         5.9309878167        3.8000741032        5.9869398709
  N         5.9432926851       14.6165234226       16.7989115260
  N        16.7515776456       18.9828596431        5.9790331839
  N        16.7516509577        8.1632022546       16.7944544591
  N         5.9447869667       18.9895998036       16.8004528897
  N         5.9304906588        8.1693685368        5.9883901108
  N        16.7518347013        3.7935192712       16.7937031540
  N        16.7516640689       14.6111430181        5.9821219748
  N         3.7577162633       16.8020914043       16.8020930314
  N        14.5685851799       16.7938197688        5.9810979842
  N        18.9414269967       16.7952654229        5.9801965525
  N         8.1251846454       16.7983786020       16.7983827427
  N        18.9414197405        5.9801944551       16.7952670066
  N         8.1147414658        5.9876780676        5.9876880184
  N         3.7445399996        5.9873904818        5.9874293811
  N        14.5685902018        5.9810990563       16.7938201233
  N        16.7515800725        5.9790400888       18.9828596966
  N        16.7516528027       16.7944588063        8.1632043079
  N        16.7518387007       16.7936987453        3.7935194751
  N        16.7516660722        5.9821168321       14.6111448858
  N         5.9310025613        5.9869196731        3.8000765506
  N         5.9432851050       16.7989159863       14.6165212144
  N         5.9447824793       16.8004521627       18.9896046991
  N         5.9304754485        5.9883613480        8.1693605493
  C        11.3481882592       15.7382370668       15.7382336054
  H        11.3473868012       14.9626441071       14.9626373098
  C        11.3366616336        4.9264953630        4.9264797144
  H        11.3347368025        4.1509431516        4.1509357188
  C         0.5285523348       15.7364622406        4.9282781007
  H         0.5307636009       14.9603779702        4.1532928516
  C         0.5285525431        4.9282834038       15.7364536615
  H         0.5307635821        4.1533031510       14.9603681342
  C        11.3444348823        7.0410424731       15.7357147554
  H        11.3447846491        7.8163229454       14.9598077811
  C        11.3438653357       17.8539849471        4.9252979225
  H        11.3434054551       18.6299014771        4.1501240195
  C         0.5195665839        7.0455216874        4.9288878493
  H         0.5198093511        7.8216750590        4.1539606224
  C         0.5322630544       17.8534610823       15.7372776661
  H         0.5324038612       18.6287129955       14.9614537645
  C        11.3444345665       15.7357112465        7.0410395249
  H        11.3447853650       14.9598032442        7.8163203924
  C        11.3438689456        4.9252992942       17.8539892832
  H        11.3434054757        4.1501258362       18.6299055273
  C         0.5322669028       15.7372770730       17.8534589008
  H         0.5324024926       14.9614526008       18.6287096656
  C         0.5195521562        4.9288761717        7.0455301667
  H         0.5198085606        4.1539520938        7.8216788883
  C        11.3404336121        7.0436348721        7.0436180987
  H        11.3421693492        7.8192244319        7.8192146766
  C        11.3505501255       17.8550375101       17.8550423331
  H        11.3513085731       18.6305556377       18.6305636078
  C         0.5246132972        7.0442908993       17.8532187858
  H         0.5226974621        7.8202137926       18.6283954703
  C         0.5246188744       17.8532167608        7.0442911442
  H         0.5226971749       18.6283905218        7.8202182881
  C        15.6948626318       11.3875729270       15.7352522424
  H        14.9193575811       11.3879764464       14.9595406817
  C        15.6851990423        0.5671659211        4.9252790751
  H        14.9088250999        0.5662783631        4.1505561205
  C         4.8714549298       11.3935399136        4.9322998662
  H         4.0973023311       11.3943080748        4.1553753391
  C         4.8868006956        0.5736228901       15.7389677098
  H         4.1117587569        0.5726430559       14.9628703870
  C        15.6892769183       11.3879158696        7.0388817967
  H        14.9138639529       11.3884152096        7.8146810024
  C        15.6927370532        0.5672162490       17.8478735833
  H        14.9169696503        0.5661200527       18.6232415146
  C         4.8817498758       11.3932626657       17.8569886630
  H         4.1071979683       11.3938899229       18.6335475189
  C         4.8779300849        0.5737628716        7.0472440523
  H         4.1030323458        0.5725216955        7.8234395518
  C         6.9962358607       11.3917833740       15.7367849501
  H         7.7710653998       11.3910844630       14.9603839433
  C         6.9939067866        0.5761546501        4.9299390983
  H         7.7695359165        0.5774641290        4.1544697947
  C        17.8063581433       11.3866305401        4.9216752594
  H        18.5818673316       11.3860900300        4.1460846459
  C        17.8086048723        0.5694552552       15.7307376894
  H        18.5835285777        0.5707452164       14.9545810174
  C         6.9853779648       11.3918161200        7.0532314178
  H         7.7601347702       11.3909224645        7.8296822699
  C         7.0017073845        0.5755426744       17.8573880471
  H         7.7772325564        0.5766148967       18.6329307703
  C        17.8123288454       11.3866377595       17.8520528022
  H        18.5883426110       11.3862286169       18.6271352725
  C        17.8028444476        0.5692287598        7.0405782150
  H        18.5784736018        0.5704041670        7.8160476067
  C        15.6948673470       15.7352490546       11.3875675972
  H        14.9193638743       14.9595373323       11.3879751574
  C        15.6852016692        4.9252740531        0.5671652833
  H        14.9088324369        4.1505461081        0.5662797292
  C         4.8868032552       15.7389649472        0.5736219423
  H         4.1117589334       14.9628678889        0.5726441754
  C         4.8714395877        4.9323141748       11.3935486520
  H         4.0972888345        4.1553840635       11.3943106049
  C         6.9962411447       15.7367912334       11.3917886694
  H         7.7710702940       14.9603874291       11.3910852809
  C         6.9939188470        4.9299362932        0.5761481450
  H         7.7695415526        4.1544727894        0.5774671830
  C        17.8086107673       15.7307394693        0.5694567761
  H        18.5835336828       14.9545853802        0.5707449216
  C        17.8063641685        4.9216802209       11.3866321140
  H        18.5818741727        4.1460889263       11.3860936063
  C        15.6892836634        7.0388843689       11.3879187608
  H        14.9138684922        7.8146844438       11.3884156674
  C        15.6927413290       17.8478771404        0.5672141182
  H        14.9169754933       18.6232452232        0.5661209493
  C         4.8779286077        7.0472444835        0.5737725573
  H         4.1030295690        7.8234325030        0.5725242662
  C         4.8817540720       17.8569915014       11.3932591074
  H         4.1071981548       18.6335474014       11.3938924667
  C         6.9853615770        7.0532352717       11.3918013123
  H         7.7601299688        7.8296827685       11.3909231600
  C         7.0017072414       17.8573819589        0.5755477991
  H         7.7772335344       18.6329277908        0.5766155291
  C        17.8028365854        7.0405812712        0.5692327500
  H        18.5784646019        7.8160539835        0.5704093101
  C        17.8123335687       17.8520519556       11.3866434692
  H        18.5883472323       18.6271336276       11.3862271466
 Kr         4.0502570258       10.6260033100       10.6260033600
