     409
 i =      96, E =    -5186.5876990110
  N         2.9688899311        5.2023124934       16.0107710460
  C         1.6504735496        5.4723719551       16.2791580176
  N        13.7872313411        5.1899596903        5.1899591549
  C        12.4688295516        5.4579270984        5.4579253651
  N        19.6526052146       17.5652652340       16.0091073584
  C        20.9707220967       17.2956108102       16.2794830335
  N         8.8303388517       17.5802068317        5.1935151671
  C        10.1482133004       17.3084331147        5.4623359696
  N        19.6473919633        5.1983189067        6.7548533492
  C        20.9654211439        5.4716430335        6.4877718859
  N         8.8303385023        5.1935117538       17.5802087598
  C        10.1482266821        5.4623341195       17.3084342895
  N         2.9669909872       17.5669972429        6.7587306510
  C         1.6492085789       17.2953286412        6.4884361650
  N        13.7896470295       17.5693747360       17.5693778560
  C        12.4713059667       17.3007270384       17.3007304505
  N        15.9397263622        3.0371957481        5.1941400135
  C        16.2066169322        1.7198420199        5.4677729742
  N        15.9356407824       13.8584640813       16.0090960038
  C        16.2048454275       12.5410247206       16.2787993764
  N        15.9420925732       19.7225129094       17.5654215016
  C        16.2090289224       21.0402600188       17.2926918294
  N        15.9291024767        8.9019837944        6.7491784565
  C        16.1983756555       10.2197783051        6.4800292023
  N         6.6706997206       19.7287376529        5.2010635500
  C         6.4021150176       21.0460128182        5.4739043652
  N         6.6844318324        8.9087480309       16.0077934406
  C         6.4128611607       10.2258314011       16.2762360711
  N         6.6747366295        3.0447554835       17.5715020264
  C         6.4081832991        1.7270741861       17.2983694607
  N         6.6898384299       13.8626852656        6.7634530337
  C         6.4180903792       12.5453758277        6.4964438403
  N         5.1256391684       16.0093551696        3.0448159227
  C         5.3960280700       16.2786216454        1.7268755930
  N         5.1299551167        5.2115484995       13.8619555364
  C         5.3991681369        5.4833714664       12.5447774951
  N        17.4942394684       16.0066434307       19.7223778263
  C        17.2230301507       16.2747494280       21.0403387315
  N        17.4862583971        5.1955600002        8.9030678765
  C        17.2155021089        5.4653305146       10.2202662499
  N         5.1217841947        6.7632418754       19.7269104721
  C         5.3905010706        6.4942205408       21.0452518267
  N         5.1273181196       17.5619319478        8.9082169597
  C         5.3961885889       17.2914957980       10.2256348065
  N        17.4912301139        6.7539426730        3.0383492419
  C        17.2200475147        6.4862670884        1.7203909094
  N        17.4930999980       17.5627628776       13.8580408793
  C        17.2220761113       17.2935275365       12.5407336301
  N         5.1199021129        3.0450617412        6.7634267913
  C         5.3893386500        1.7268043987        6.4943924842
  N         5.1276244244       13.8623847700       17.5648699075
  C         5.3962391408       12.5451448558       17.2930642326
  N        17.4915037125       19.7213734245        6.7552115432
  C        17.2202965647       21.0393434891        6.4869606279
  N        17.4905167005        8.9037413436       17.5630250066
  C        17.2206817990       10.2211587637       17.2936133131
  N         5.1277314717       19.7275167050       16.0100317131
  C         5.3973653634       21.0456012020       16.2790411666
  N         5.1307740112        8.9078200481        5.2133912917
  C         5.3997793616       10.2251084403        5.4844500570
  N        17.4923119286        3.0393054078       16.0062538332
  C        17.2219181521        1.7213716834       16.2746345482
  N        17.4881139721       13.8572617398        5.1975438740
  C        17.2164781125       12.5400047071        5.4663420466
  N         2.9708146508       16.0137133975       17.5701065784
  C         1.6528143699       16.2818370233       17.2979447355
  N        13.7841103581       16.0142168591        6.7496868736
  C        12.4673868138       16.2871817535        6.4789601289
  N        19.6503793275       16.0076965418        5.1981015008
  C        20.9682032682       16.2774366691        5.4702392617
  N         8.8317353549       16.0176416222       16.0176415244
  C        10.1492804298       16.2870449020       16.2870457112
  N        19.6485354551        6.7542302917       17.5642387984
  C        20.9669278516        6.4861996648       17.2937353073
  N         8.8303224001        6.7406800307        6.7406784152
  C        10.1474754810        6.4709410275        6.4709397370
  N         2.9660614678        6.7615713411        5.2053215158
  C         1.6478607725        6.4910038432        5.4748783238
  N        13.7841020135        6.7496930740       16.0142132300
  C        12.4673711646        6.4789581921       16.2871845966
  N        15.9403860503        5.1954194235       19.7216521027
  C        16.2069468509        5.4683884285       21.0392881147
  N        15.9337155422       16.0094016094        8.9038706017
  C        16.2036645661       16.2788414744       10.2213103120
  N        15.9396453725       17.5647691248        3.0385454993
  C        16.2077782486       17.2924179621        1.7210073656
  N        15.9305211295        6.7515645000       13.8576757764
  C        16.1992416731        6.4811204925       12.5400655982
  N         6.6675437068        5.1997886978        3.0437619263
  C         6.4003905446        5.4735299880        1.7264862531
  N         6.6834972045       16.0094541030       13.8626640090
  C         6.4124138658       16.2772864322       12.5454857996
  N         6.6782804096       17.5705644736       19.7284022804
  C         6.4101597800       17.2981866668       21.0461062536
  N         6.6919460045        6.7636388117        8.9077257873
  C         6.4192638782        6.4969092544       10.2250992686
  N        19.6485338984       17.5642200930        6.7542191875
  C        20.9669339034       17.2937240328        6.4861926470
  N         8.8322440826       17.5736709932       17.5736757079
  C        10.1500677233       17.3030735037       17.3030776106
  N         2.9660612920        5.2053177793        6.7615711923
  C         1.6478540953        5.4748743894        6.4910049753
  N        13.7877801334        5.1930061639       17.5697875681
  C        12.4693815933        5.4626616262       17.3029145794
  N         2.9708033808       17.5700959824       16.0137271638
  C         1.6527974681       17.2979397252       16.2818442677
  N        13.7877787721       17.5697756054        5.1930166297
  C        12.4693824674       17.3029080741        5.4626686261
  N        19.6503860647        5.1981005839       16.0076922709
  C        20.9682292836        5.4702446846       16.2774385588
  N         8.8299161883        5.1853924055        5.1853939850
  C        10.1478733159        5.4550828921        5.4550828410
  N         6.6782889783       19.7283954874       17.5705689394
  C         6.4101619771       21.0460974494       17.2981921105
  N         6.6919395220        8.9077265079        6.7636380094
  C         6.4192741544       10.2251014912        6.4968978564
  N         6.6675360085        3.0437501286        5.1997917117
  C         6.4003872916        1.7264911890        5.4735313743
  N         6.6834925185       13.8626651033       16.0094524132
  C         6.4124022749       12.5454719862       16.2772778097
  N        15.9396309768        3.0385423159       17.5647783139
  C        16.2077694368        1.7210161982       17.2924178258
  N        15.9305322660       13.8576855014        6.7515580693
  C        16.1992442785       12.5400661149        6.4811204149
  N        15.9403884151       19.7216447297        5.1954252796
  C        16.2069469638       21.0392666071        5.4683924521
  N        15.9337139916        8.9038840992       16.0094025542
  C        16.2036627421       10.2213394558       16.2788444458
  N        17.4915117673        6.7552316605       19.7213759137
  C        17.2202977592        6.4869690375       21.0393470770
  N        17.4904959631       17.5630039477        8.9037504920
  C        17.2206751073       17.2936032018       10.2211599477
  N         5.1198987795        6.7634291560        3.0450689945
  C         5.3893347445        6.4943943104        1.7268054456
  N         5.1276317518       17.5648651027       13.8623789113
  C         5.3962531637       17.2930678096       12.5451406617
  N        17.4923200062       16.0062499127        3.0393213542
  C        17.2219287630       16.2746318081        1.7213779651
  N        17.4881132791        5.1975442695       13.8572535426
  C        17.2164752200        5.4663457546       12.5400036514
  N         5.1277243707       16.0100309777       19.7275138650
  C         5.3973623459       16.2790367615       21.0455919526
  N         5.1307787461        5.2133944525        8.9078255581
  C         5.3997681325        5.4844638085       10.2251118887
  N        17.4942443790       19.7223649934       16.0066349943
  C        17.2230327973       21.0403373463       16.2747391462
  N        17.4862561480        8.9030744738        5.1955626932
  C        17.2154978306       10.2202598482        5.4653339392
  N         5.1256293504        3.0448188014       16.0093543535
  C         5.3960196496        1.7268819141       16.2786221279
  N         5.1299656216       13.8619514533        5.2115534585
  C         5.3991838879       12.5447798484        5.4833617737
  N        17.4912454033        3.0383530450        6.7539544476
  C        17.2200558555        1.7203874394        6.4862725556
  N        17.4930810307       13.8580297153       17.5627458223
  C        17.2220632726       12.5407262266       17.2935196873
  N         5.1217860833       19.7269021244        6.7632443189
  C         5.3905000998       21.0452490643        6.4942248080
  N         5.1273207807        8.9082235006       17.5619298184
  C         5.3961861020       10.2256430467       17.2914845449
  N        19.6473916439        6.7548537642        5.1983215423
  C        20.9654279593        6.4877686603        5.4716490031
  N         8.8301527713        6.7491219427       16.0242458702
  C        10.1474813030        6.4782868219       16.2924784397
  N         2.9669898690        6.7587274324       17.5669929879
  C         1.6491965541        6.4884322101       17.2953252057
  N        13.7834005773        6.7460229176        6.7460205766
  C        12.4668888337        6.4739087681        6.4739067708
  N         2.9688792463       16.0107869698        5.2023178372
  C         1.6504650849       16.2791655873        5.4723725681
  N        13.7864370122       16.0133120913       16.0133082244
  C        12.4695387525       16.2847196759       16.2847195207
  N        19.6526128624       16.0091139574       17.5652558926
  C        20.9707450548       16.2794925925       17.2955997261
  N         8.8301615280       16.0242503888        6.7491151059
  C        10.1474817459       16.2924801851        6.4782831668
  N         6.6747447720       17.5714982234        3.0447598778
  C         6.4081912357       17.2983668488        1.7270886490
  N         6.6898396063        6.7634577108       13.8626860249
  C         6.4180801029        6.4964567665       12.5453661433
  N         6.6706983231        5.2010638526       19.7287475493
  C         6.4021139329        5.4739050953       21.0460144260
  N         6.6844282774       16.0078039737        8.9087492426
  C         6.4128671696       16.2762480950       10.2258377799
  N        15.9420991872       17.5654176909       19.7225193329
  C        16.2090350069       17.2926930848       21.0402381663
  N        15.9290929753        6.7491875222        8.9019705906
  C        16.1983712669        6.4800336439       10.2197921952
  N        15.9397185285        5.1941219507        3.0372081724
  C        16.2066148699        5.4677642010        1.7198483093
  N        15.9356592930       16.0091113199       13.8584458282
  C        16.2048568061       16.2788042488       12.5410099407
 Zn        14.6435385412       14.7184671934       14.7184767607
 Cl        13.4079671075       13.4876523543       13.4876579198
 Zn        14.6526311775        3.8982695750        3.8982647224
 Cl        13.4175797620        2.6668733492        2.6668769133
 Zn         3.8380888759       14.7179696703        3.9120048140
 Cl         2.6096329245       13.4740168402        2.6871842139
 Zn         3.8380944736        3.9120121608       14.7179798913
 Cl         2.6096321777        2.6871883036       13.4740223909
 Zn         7.9874847474        8.0480518936       14.7266456188
 Cl         9.2762257178        9.2569534439       13.5296720029
 Zn         7.9598267169       18.8722321427        3.9033444208
 Cl         9.1883578239       20.1056591347        2.6682020692
 Zn        18.7797571837        8.0468053865        3.9033973580
 Cl        20.0128279234        9.2814012704        2.6736722327
 Zn        18.7839613884       18.8563367195       14.7171739002
 Cl        20.0173062950       20.0827491032       13.4789466252
 Zn         7.9874846891       14.7266366121        8.0480523126
 Cl         9.2762255815       13.5296676616        9.2569504095
 Zn         7.9598266244        3.9033419034       18.8722416759
 Cl         9.1883581370        2.6682016253       20.1056649763
 Zn        18.7839734279       14.7171686662       18.8563530809
 Cl        20.0173132085       13.4789455236       20.0827516977
 Zn        18.7797525769        3.9033928661        8.0467957025
 Cl        20.0128254111        2.6736761941        9.2814049710
 Zn        14.6387023566        8.0427933275        8.0427906331
 Cl        13.4132577720        9.2784521788        9.2784537939
 Zn        14.6554063215       18.8621944557       18.8622044939
 Cl        13.4191613996       20.0927257065       20.0927287031
 Zn         3.8344188357        8.0535901192       18.8574009874
 Cl         2.6038610375        9.2948284293       20.0832042573
 Zn         3.8344164240       18.8573848299        8.0535854372
 Cl         2.6038621421       20.0831990457        9.2948273393
 Zn        14.6408443654       14.7188575176        8.0461179312
 Cl        13.4096547662       13.4875940690        9.2805782344
 Zn        14.6532125053        3.8999242595       18.8616477586
 Cl        13.4165549178        2.6680228110       20.0906774646
 Zn         3.8373244538       14.7202597241       18.8624441814
 Cl         2.6069967281       13.4806239180       20.0897471093
 Zn         3.8357436006        3.9163660278        8.0557550809
 Cl         2.6074766623        2.6946128689        9.3031336606
 Zn         7.9955294077        8.0407654355        8.0407717374
 Cl         9.3119603712        9.2287551412        9.2287550504
 Zn         7.9651169895       18.8673168071       18.8673123156
 Cl         9.2043049910       20.0962864981       20.0962848295
 Zn        18.7807753471        8.0472793170       18.8564161215
 Cl        20.0148497864        9.2819503421       20.0854010290
 Zn        18.7807886607       18.8564275346        8.0472840632
 Cl        20.0148532261       20.0854016833        9.2819490619
 Zn        14.6408326792        8.0461169995       14.7188472305
 Cl        13.4096470429        9.2805839865       13.4875906906
 Zn        14.6532098045       18.8616530821        3.8999263902
 Cl        13.4165560554       20.0906750045        2.6680249445
 Zn         3.8357439939        8.0557542101        3.9163796771
 Cl         2.6074724267        9.3031278369        2.6946182167
 Zn         3.8373209204       18.8624547204       14.7202447169
 Cl         2.6069973686       20.0897512669       13.4806193841
 Zn         7.9796234926       14.7221890415       14.7221849046
 Cl         9.2408338666       13.5044299155       13.5044303646
 Zn         7.9552658138        3.8980943409        3.8980957993
 Cl         9.1695296390        2.6567379137        2.6567392178
 Zn        18.7818513471       14.7165252195        3.9047231314
 Cl        20.0139211611       13.4785391522        2.6771226633
 Zn        18.7818526013        3.9047214970       14.7165178345
 Cl        20.0139204147        2.6771208772       13.4785382044
 Zn         5.9004677375        5.9781894371       16.7913771808
 Zn        16.7178062187       16.7845488568       16.7845515737
 Zn        16.7151497702        5.9678052533        5.9678015239
 Zn         5.9004670575       16.7913687107        5.9781894481
 Zn         5.8998810975        5.9757391132        5.9757537053
 Zn        16.7158678826       16.7834900315        5.9697157622
 Zn         5.9015723487       16.7908093403       16.7908078338
 Zn        16.7158687826        5.9697096045       16.7834877709
  N         3.7142654551        5.9806097026       16.7896719439
  N        14.5317433588        5.9689937513        5.9689913689
  N        18.9062517527       16.7869957027       16.7869774313
  N         8.0838457788       16.8026746745        5.9721836710
  N        18.9011441251        5.9748247441        5.9748325069
  N         8.0838413196        5.9721843245       16.8026767829
  N         3.7142545146       16.7896670885        5.9806040670
  N        14.5344152264       16.7905659873       16.7905681019
  N        16.7166666848        3.7842918025        5.9721966346
  N        16.7148629812       14.6046551198       16.7857135780
  N        16.7193643584       18.9756654642       16.7873740602
  N        16.7082072653        8.1557654139        5.9722597400
  N         5.8961110505       18.9811058935        5.9810108485
  N         5.9065028506        8.1618974102       16.7856272318
  N         5.8991281623        3.7914094126       16.7917317025
  N         5.9103643518       14.6088143546        5.9860422326
  N         5.8991324569       16.7917286572        3.7914084593
  N         5.9103822156        5.9860329497       14.6088200280
  N        16.7193555288       16.7873824970       18.9756615982
  N        16.7082151839        5.9722501602        8.1557667324
  N         5.8961150104        5.9810088368       18.9811021802
  N         5.9064891495       16.7856163162        8.1619074904
  N        16.7166812719        5.9722086531        3.7842987244
  N        16.7148552371       16.7857013362       14.6046472525
  N         5.8931473697        3.7908619533        5.9800839114
  N         5.9061559460       14.6090337748       16.7882037170
  N        16.7172320038       18.9747075547        5.9738022215
  N        16.7121817290        8.1570323391       16.7861688762
  N         5.9024628874       18.9811953589       16.7913269073
  N         5.9121635226        8.1612146394        5.9870150708
  N        16.7166526485        3.7854804924       16.7865964222
  N        16.7101717451       14.6037917098        5.9750516681
  N         3.7170952277       16.7928922472       16.7928881869
  N        14.5323156358       16.7903599351        5.9715525007
  N        18.9031613096       16.7862257983        5.9751088652
  N         8.0856372221       16.7956868440       16.7956874852
  N        18.9031537240        5.9751180757       16.7862360000
  N         8.0836273115        5.9635528451        5.9635542404
  N         3.7123385651        5.9837199931        5.9837250959
  N        14.5323251626        5.9715446370       16.7903660585
  N        16.7172295565        5.9738060593       18.9747051408
  N        16.7121841142       16.7861729173        8.1570382811
  N        16.7166548461       16.7865994129        3.7854698111
  N        16.7101704653        5.9750475566       14.6038055161
  N         5.8931440397        5.9800906242        3.7908656764
  N         5.9061581824       16.7881944984       14.6090376335
  N         5.9024578767       16.7913336083       18.9812012397
  N         5.9121684816        5.9869915357        8.1612138417
  C        11.3084105313       15.7353579140       15.7353563984
  H        11.3063406851       14.9597079811       14.9597031158
  C        11.3095635261        4.9060046659        4.9060042431
  H        11.3121319505        4.1305272415        4.1305272652
  C         0.4902259178       15.7276789609        4.9218710115
  H         0.4916445848       14.9513445988        4.1471265830
  C         0.4902339607        4.9218761022       15.7276753016
  H         0.4916546154        4.1471427899       14.9513454349
  C        11.3061744177        7.0291615188       15.7392950358
  H        11.3024150219        7.8048625835       14.9636949012
  C        11.3100686964       17.8558555361        4.9119618548
  H        11.3124536756       18.6309879309        4.1361362904
  C         0.4867029890        7.0399153746        4.9238125920
  H         0.4865863938        7.8160352625        4.1488343202
  C         0.4917674484       17.8464128088       15.7301315526
  H         0.4918010062       18.6213178248       14.9539520483
  C        11.3061803800       15.7392939881        7.0291596117
  H        11.3024207379       14.9636852972        7.8048667357
  C        11.3100682314        4.9119572473       17.8558589245
  H        11.3124531582        4.1361391230       18.6309836467
  C         0.4917741080       15.7301310501       17.8464089790
  H         0.4918077299       14.9539501682       18.6213121106
  C         0.4866993788        4.9238078949        7.0399147526
  H         0.4865829740        4.1488292200        7.8160321939
  C        11.3059978271        7.0230114094        7.0230096164
  H        11.3011968828        7.7986794869        7.7986776223
  C        11.3117329142       17.8521847130       17.8521904984
  H        11.3133972693       18.6276602230       18.6276677431
  C         0.4871926486        7.0377226325       17.8442125674
  H         0.4857057761        7.8136921291       18.6193378556
  C         0.4871933051       17.8442062222        7.0377242031
  H         0.4857053976       18.6193339024        7.8137020594
  C        15.6527396209       11.3814173767       15.7287388876
  H        14.8762993860       11.3817432826       14.9539535646
  C        15.6567357687        0.5593334747        4.9171820584
  H        14.8824877877        0.5591837958        4.1402503873
  C         4.8468779180       11.3845671304        4.9353186157
  H         4.0695450046       11.3837220213        4.1613707086
  C         4.8485188466        0.5658577625       15.7263124953
  H         4.0752261006        0.5651756475       14.9485110241
  C        15.6472345422       11.3798531162        7.0304154402
  H        14.8708846516       11.3796063734        7.8053244907
  C        15.6581848596        0.5604078687       17.8431604803
  H        14.8833651825        0.5602240210       18.6194653666
  C         4.8451335160       11.3850418745       17.8425864518
  H         4.0697565060       11.3844419619       18.6184103601
  C         4.8423422863        0.5657612067        7.0474539416
  H         4.0700617955        0.5652361074        7.8262358269
  C         6.9634319774       11.3859558393       15.7260776452
  H         7.7412604769       11.3867492296       14.9528924968
  C         6.9496866111        0.5665693638        4.9213461877
  H         7.7220050446        0.5675320309        4.1424213091
  C        17.7671215839       11.3801265469        4.9158790746
  H        18.5438521975       11.3801967579        4.1415343279
  C        17.7712361269        0.5610893658       15.7226242027
  H        18.5452210152        0.5617659062       14.9455245291
  C         6.9710226503       11.3855659345        7.0455144475
  H         7.7518771196       11.3865727312        7.8155170242
  C         6.9583416964        0.5669819940       17.8498303857
  H         7.7319004635        0.5680596029       18.6274502122
  C        17.7727304039       11.3806360786       17.8435490469
  H        18.5494428186       11.3802035691       18.6179286507
  C        17.7685191353        0.5600803883        7.0390297796
  H        18.5423382819        0.5606869004        7.8162764530
  C        15.6527464543       15.7287383507       11.3814166666
  H        14.8763016890       14.9539465706       11.3817305330
  C        15.6567409481        4.9171748537        0.5593334482
  H        14.8825054599        4.1402463847        0.5591924243
  C         4.8485218212       15.7263104305        0.5658540973
  H         4.0752274950       14.9485089609        0.5651735188
  C         4.8468628950        4.9353309729       11.3845740063
  H         4.0695359585        4.1613841916       11.3837278830
  C         6.9634417978       15.7260877492       11.3859534911
  H         7.7412742686       14.9528979664       11.3867498009
  C         6.9496883264        4.9213464896        0.5665810172
  H         7.7220057439        4.1424240459        0.5675403130
  C        17.7712412306       15.7226277128        0.5611055538
  H        18.5452326158       14.9455219431        0.5617758347
  C        17.7671233528        4.9158806245       11.3801137050
  H        18.5438507149        4.1415418577       11.3801923869
  C        15.6472309787        7.0304176262       11.3798406582
  H        14.8708858122        7.8053208810       11.3795985317
  C        15.6581922260       17.8431628618        0.5604176619
  H        14.8833662296       18.6194758055        0.5602259264
  C         4.8423385743        7.0474516381        0.5657741794
  H         4.0700557816        7.8262303066        0.5652413427
  C         4.8451408616       17.8425919331       11.3850348149
  H         4.0697582360       18.6184160641       11.3844391572
  C         6.9710130166        7.0455253018       11.3855703485
  H         7.7518684477        7.8155178134       11.3865698830
  C         6.9583450008       17.8498251712        0.5669856096
  H         7.7319052883       18.6274459299        0.5680657192
  C        17.7685145574        7.0390352167        0.5600805086
  H        18.5423274735        7.8162822605        0.5606884214
  C        17.7727329990       17.8435471644       11.3806402622
  H        18.5494483888       18.6179296925       11.3802077402
 Kr         6.9532459002       11.3149742696       11.3149738914
