     409
 i =      96, E =    -5186.5721540921
  N         2.9080264921        5.2036285538       16.0004513662
  C         1.5901623109        5.4735857362       16.2711534794
  N        13.7122046863        5.1312040238        5.1312037300
  C        12.3962761552        5.4072593802        5.4072580673
  N        19.5945619371       17.5658218754       16.0098309036
  C        20.9125906816       17.2937324909       16.2776467308
  N         8.7583479594       17.5916141114        5.1759346056
  C        10.0797462055       17.3295654377        5.4324442684
  N        19.5867550213        5.2013529933        6.7579105545
  C        20.9047896082        5.4740093074        6.4901301017
  N         8.7583490961        5.1759353148       17.5916144385
  C        10.0797455656        5.4324450188       17.3295676921
  N         2.9086715426       17.5547224488        6.7613025335
  C         1.5906509974       17.2867062920        6.4901469315
  N        13.7207128400       17.6186438805       17.6186451200
  C        12.4050046341       17.3431213405       17.3431213279
  N        15.8980766989        3.0347228021        5.1826618762
  C        16.1631683228        1.7195306667        5.4618191389
  N        15.8696867016       13.8615632087       16.0128498618
  C        16.1421496800       12.5423175115       16.2773645683
  N        15.9001808025       19.7274193569       17.5755499102
  C        16.1645831817       21.0430548694       17.2963127172
  N        15.8574412424        8.8963919008        6.7462824273
  C        16.1285498038       10.2165107771        6.4859556227
  N         6.5955937248       19.7257158297        5.1950446976
  C         6.3263761944       21.0417609295        5.4696286764
  N         6.6441482211        8.9018850707       16.0119942473
  C         6.3734307094       10.2207845896       16.2789701866
  N         6.6013573572        3.0390283629       17.5751493368
  C         6.3347043561        1.7222906528       17.3002250306
  N         6.6385570451       13.8596167707        6.7477806704
  C         6.3663079276       12.5410608904        6.4826874477
  N         5.0591449219       16.0065464169        3.0408455452
  C         5.3271161113       16.2760886219        1.7226284532
  N         5.0729280929        5.2016451781       13.8573005328
  C         5.3440425210        5.4729290084       12.5405759305
  N        17.4405238043       16.0042795208       19.7237630860
  C        17.1705831891       16.2704046010       21.0419544781
  N        17.4232962646        5.2013712161        8.9040504869
  C        17.1515260267        5.4770032904       10.2204423283
  N         5.0533555526        6.7634853477       19.7206915932
  C         5.3188538714        6.4939885988       21.0397863441
  N         5.0758361659       17.5552406938        8.9054342597
  C         5.3497780192       17.2873803964       10.2220319664
  N        17.4365163794        6.7558794590        3.0394837841
  C        17.1679947325        6.4886644326        1.7211977024
  N        17.4344857687       17.5586420695       13.8597636357
  C        17.1647387099       17.2868699535       12.5424193604
  N         5.0484131449        3.0397308158        6.7612397548
  C         5.3166723820        1.7212384558        6.4927387516
  N         5.0772713243       13.8582805757       17.5589498270
  C         5.3499725096       12.5415044570       17.2893888725
  N        17.4384255321       19.7241584762        6.7542550557
  C        17.1685237928       21.0419951307        6.4873712441
  N        17.4353535769        8.9048204333       17.5673588775
  C        17.1653381294       10.2212441391       17.2913406564
  N         5.0618019731       19.7227729982       16.0052153212
  C         5.3281712227       21.0414660453       16.2751716103
  N         5.0708728420        8.9047188836        5.2028576634
  C         5.3435910715       10.2210811929        5.4736970483
  N        17.4380866096        3.0401852280       16.0018069467
  C        17.1697212307        1.7216979937       16.2688277638
  N        17.4217257795       13.8597153599        5.2113035113
  C        17.1507375875       12.5421160352        5.4818895945
  N         2.9121062279       16.0035866189       17.5593358941
  C         1.5941641274       16.2745683351       17.2906083524
  N        13.7323773679       16.0634194845        6.6890803543
  C        12.4118572391       16.3256135460        6.4269740999
  N        19.5899432696       16.0071308718        5.2005444483
  C        20.9082781684       16.2745716317        5.4718585631
  N         8.7829712920       16.0311293245       16.0311285483
  C        10.0962563219       16.3118115160       16.3118094226
  N        19.5911660137        6.7549340015       17.5653409916
  C        20.9089374174        6.4870634414       17.2916253555
  N         8.7758320777        6.7222561084        6.7222532728
  C        10.0885308286        6.4405202853        6.4405169590
  N         2.9045031246        6.7632072063        5.2068711811
  C         1.5866094334        6.4928291698        5.4767419082
  N        13.7323750838        6.6890812735       16.0634209765
  C        12.4118570086        6.4269751969       16.3256153902
  N        15.8987559435        5.1818374485       19.7271755936
  C        16.1631951225        5.4608301141       21.0427605691
  N        15.8715295350       16.0210469632        8.8979502868
  C        16.1430453841       16.2816980558       10.2179780745
  N        15.8987152668       17.5734296682        3.0355115395
  C        16.1640791633       17.2949078345        1.7201598549
  N        15.8562635579        6.7574033719       13.8605726287
  C        16.1280178608        6.4913309654       12.5415544868
  N         6.5897635432        5.1919920576        3.0368515314
  C         6.3237600787        5.4681134760        1.7205309640
  N         6.6442132971       16.0140207514       13.8609536135
  C         6.3729972349       16.2803878015       12.5424884026
  N         6.6044407967       17.5732216668       19.7262051869
  C         6.3360325176       17.2991663290       21.0428080189
  N         6.6383804850        6.7468435571        8.9000235407
  C         6.3666831681        6.4826987451       10.2192105676
  N        19.5911734409       17.5653362533        6.7549363015
  C        20.9089370340       17.2916231323        6.4870648889
  N         8.7620313081       17.5870895842       17.5870921516
  C        10.0833087802       17.3272402031       17.3272407675
  N         2.9045042096        5.2068733227        6.7632087480
  C         1.5866093644        5.4767442485        6.4928294716
  N        13.7173447524        5.1402298161       17.6217485169
  C        12.4015045620        5.4144031561       17.3446614006
  N         2.9120986884       17.5593369342       16.0035898957
  C         1.5941678153       17.2906132149       16.2745668745
  N        13.7173446144       17.6217440912        5.1402284115
  C        12.4015046007       17.3446582045        5.4144015408
  N        19.5899464071        5.2005500712       16.0071294250
  C        20.9082748672        5.4718620497       16.2745689551
  N         8.7525497946        5.1671411164        5.1671426160
  C        10.0742563253        5.4253096806        5.4253092594
  N         6.6044442813       19.7262033364       17.5732226389
  C         6.3360325513       21.0428085352       17.2991671688
  N         6.6383775859        8.9000220283        6.7468466528
  C         6.3666813567       10.2192113802        6.4827012825
  N         6.5897618479        3.0368499855        5.1919905553
  C         6.3237590191        1.7205322393        5.4681147256
  N         6.6442112956       13.8609503060       16.0140252917
  C         6.3729995238       12.5424909726       16.2803887263
  N        15.8987097838        3.0355140756       17.5734318748
  C        16.1640743195        1.7201611516       17.2949039474
  N        15.8562666022       13.8605742783        6.7574035598
  C        16.1280181891       12.5415534566        6.4913296661
  N        15.8987543901       19.7271726952        5.1818371761
  C        16.1631936482       21.0427584611        5.4608310149
  N        15.8715290328        8.8979538942       16.0210489765
  C        16.1430398827       10.2179776004       16.2816998332
  N        17.4384186493        6.7542581221       19.7241572896
  C        17.1685207254        6.4873740471       21.0419972389
  N        17.4353571396       17.5673583913        8.9048253871
  C        17.1653444326       17.2913385519       10.2212410339
  N         5.0484145398        6.7612406020        3.0397287632
  C         5.3166727615        6.4927371766        1.7212379314
  N         5.0772699848       17.5589493920       13.8582739271
  C         5.3499700903       17.2893886445       12.5415074568
  N        17.4380862444       16.0018044627        3.0401870458
  C        17.1697239458       16.2688299910        1.7216932025
  N        17.4217227434        5.2112971540       13.8597134400
  C        17.1507354884        5.4818881791       12.5421153292
  N         5.0618029587       16.0052174151       19.7227666903
  C         5.3281726769       16.2751709914       21.0414666844
  N         5.0708727268        5.2028571308        8.9047174230
  C         5.3435909149        5.4736959895       10.2210812102
  N        17.4405187763       19.7237591205       16.0042788601
  C        17.1705770821       21.0419586075       16.2704011015
  N        17.4232974339        8.9040508898        5.2013710516
  C        17.1515256187       10.2204415291        5.4770014835
  N         5.0591405302        3.0408480461       16.0065494309
  C         5.3271126419        1.7226277185       16.2760924286
  N         5.0729270640       13.8572992792        5.2016437332
  C         5.3440432345       12.5405751019        5.4729296755
  N        17.4365199120        3.0394823834        6.7558799074
  C        17.1679958328        1.7211931849        6.4886635836
  N        17.4344846820       13.8597577699       17.5586420311
  C        17.1647348528       12.5424222471       17.2868728794
  N         5.0533599387       19.7206877316        6.7634844411
  C         5.3188558678       21.0397857042        6.4939910050
  N         5.0758364897        8.9054399608       17.5552407536
  C         5.3497779381       10.2220288398       17.2873829363
  N        19.5867527644        6.7579099599        5.2013501166
  C        20.9047918713        6.4901287936        5.4740081433
  N         8.7798649912        6.7253072589       16.0299132540
  C        10.0929559939        6.4438086178       16.3103242641
  N         2.9086647378        6.7613006170       17.5547233392
  C         1.5906525454        6.4901479147       17.2867093410
  N        13.7275463567        6.6845607979        6.6845581590
  C        12.4068853601        6.4230554001        6.4230520262
  N         2.9080243043       16.0004575673        5.2036254957
  C         1.5901663363       16.2711553870        5.4735803903
  N        13.7359167512       16.0652450058       16.0652416819
  C        12.4152804261       16.3273617019       16.3273588032
  N        19.5945698884       16.0098324169       17.5658140774
  C        20.9125880639       16.2776466852       17.2937287909
  N         8.7798671830       16.0299125039        6.7253080136
  C        10.0929560750       16.3103223715        6.4438083991
  N         6.6013619233       17.5751502779        3.0390281845
  C         6.3347070112       17.3002226324        1.7222902375
  N         6.6385572012        6.7477788533       13.8596172843
  C         6.3663081730        6.4826853563       12.5410606430
  N         6.5955920977        5.1950438003       19.7257141961
  C         6.3263750912        5.4696262015       21.0417595525
  N         6.6441454140       16.0119959088        8.9018882680
  C         6.3734301456       16.2789679652       10.2207833728
  N        15.9001838317       17.5755569121       19.7274153300
  C        16.1645903742       17.2963182659       21.0430531239
  N        15.8574437118        6.7462852394        8.8963910365
  C        16.1285525681        6.4859596597       10.2165110228
  N        15.8980783184        5.1826549021        3.0347246067
  C        16.1631710498        5.4618159037        1.7195311082
  N        15.8696903713       16.0128550707       13.8615601917
  C        16.1421531556       16.2773632655       12.5423181355
 Zn        14.5707516345       14.7721909829       14.7721863006
 Cl        13.1181862059       13.6749342408       13.6749432015
 Zn        14.6100755534        3.8572493109        3.8572528279
 Cl        13.4331037809        2.5996166743        2.5996220756
 Zn         3.7773053797       14.7128939530        3.9082037366
 Cl         2.5374169542       13.4763080923        2.6866778006
 Zn         3.7773039654        3.9082033799       14.7128908392
 Cl         2.5374142686        2.6866769001       13.4763067727
 Zn         7.9420515502        8.0255855859       14.7271697644
 Cl         9.1562270014        9.2664828187       13.4861500022
 Zn         7.8863285487       18.8791445585        3.8939029079
 Cl         9.1080330949       20.1194537941        2.6583276326
 Zn        18.7214812804        8.0504329624        3.9066465073
 Cl        19.9444938381        9.2985580099        2.6816950548
 Zn        18.7275483063       18.8536067227       14.7156418321
 Cl        19.9527932643       20.0806102287       13.4700725725
 Zn         7.9420501685       14.7271717573        8.0255864086
 Cl         9.1562249931       13.4861490139        9.2664811485
 Zn         7.8863274692        3.8939031158       18.8791436571
 Cl         9.1080271507        2.6583280433       20.1194578371
 Zn        18.7275463067       14.7156462617       18.8535944714
 Cl        19.9527903943       13.4700812263       20.0806044036
 Zn        18.7214834878        3.9066484518        8.0504327782
 Cl        19.9444931230        2.6816985633        9.2985616278
 Zn        14.5578023177        7.9764947039        7.9764929357
 Cl        13.0921881296        9.0653248877        9.0653216558
 Zn        14.6112068178       18.8918768078       18.8918741189
 Cl        13.4321179189       20.1494088118       20.1494092104
 Zn         3.7752795091        8.0568847408       18.8414958347
 Cl         2.5340079594        9.2935824328       20.0625011277
 Zn         3.7752790522       18.8415001812        8.0568861730
 Cl         2.5340068656       20.0625036184        9.2935842761
 Zn        14.5645471096       14.7822617441        7.9969211397
 Cl        13.1043227648       13.7684367775        9.1618896576
 Zn        14.6099083461        3.8622325866       18.8918388118
 Cl        13.4317102266        2.6041538142       20.1490363045
 Zn         3.7802253653       14.7128913150       18.8488680323
 Cl         2.5408341465       13.4771418496       20.0725100634
 Zn         3.7706172324        3.9126021472        8.0562101581
 Cl         2.5286369592        2.6954679230        9.2948210044
 Zn         7.9405625447        8.0223465369        8.0223481307
 Cl         9.1574723945        9.2625733165        9.2625718509
 Zn         7.8922800627       18.8748157242       18.8748173893
 Cl         9.1198168067       20.1098014432       20.1097982675
 Zn        18.7270543895        8.0477590614       18.8616064021
 Cl        19.9560817400        9.2844521350       20.0924914179
 Zn        18.7270543073       18.8615996204        8.0477557697
 Cl        19.9560799986       20.0924908323        9.2844456581
 Zn        14.5645477908        7.9969212967       14.7822642858
 Cl        13.1043224428        9.1618899397       13.7684412605
 Zn        14.6099090751       18.8918345311        3.8622304302
 Cl        13.4317119984       20.1490357357        2.6041546120
 Zn         3.7706190003        8.0562093358        3.9126021360
 Cl         2.5286365072        9.2948186762        2.6954694879
 Zn         3.7802280912       18.8488638717       14.7128946136
 Cl         2.5408394499       20.0725083020       13.4771440648
 Zn         7.9435345852       14.7283722623       14.7283753189
 Cl         9.1539885622       13.4860973414       13.4860960722
 Zn         7.8734429668        3.8867815376        3.8867832054
 Cl         9.0891766566        2.6454604103        2.6454637634
 Zn        18.7212862378       14.7130677671        3.9137002940
 Cl        19.9411802777       13.4558038977        2.6937436023
 Zn        18.7212848593        3.9137022841       14.7130722981
 Cl        19.9411762291        2.6937433444       13.4558080378
 Zn         5.8421529601        5.9720486433       16.7845211983
 Zn        16.6611998708       16.8083522733       16.8083459824
 Zn        16.6566769861        5.9528398818        5.9528400218
 Zn         5.8421531350       16.7845236171        5.9720490727
 Zn         5.8373783433        5.9693407786        5.9693412389
 Zn        16.6588248494       16.8118386514        5.9570074913
 Zn         5.8455993271       16.7853550778       16.7853579002
 Zn        16.6588248444        5.9570095278       16.8118429994
  N         3.6546123930        5.9828650870       16.7769779832
  N        14.4663534563        5.9059575302        5.9059566118
  N        18.8479960904       16.7888140395       16.7888253643
  N         8.0224380101       16.8063106127        5.9568362781
  N        18.8403186004        5.9781805077        5.9781831016
  N         8.0224377172        5.9568325719       16.8063155840
  N         3.6546139254       16.7769699992        5.9828546030
  N        14.4747556846       16.8439530269       16.8439534956
  N        16.6682172970        3.7831488780        5.9653721407
  N        16.6514144346       14.6076636670       16.7887106820
  N        16.6719714649       18.9796833538       16.7938796411
  N        16.6396440881        8.1533037593        5.9678894386
  N         5.8257726468       18.9763426160        5.9776635259
  N         5.8585389676        8.1573099433       16.7839934918
  N         5.8301184718        3.7866695853       16.7922756339
  N         5.8560952405       14.6046853848        5.9730916763
  N         5.8301192019       16.7922690027        3.7866692437
  N         5.8560947837        5.9730913806       14.6046857230
  N        16.6719816929       16.7938746478       18.9796802364
  N        16.6396478688        5.9678932022        8.1533042346
  N         5.8257671555        5.9776671264       18.9763424941
  N         5.8585472319       16.7839845073        8.1573105714
  N        16.6682177364        5.9653697645        3.7831509940
  N        16.6514049251       16.7887072392       14.6076621097
  N         5.8187838442        3.7850086324        5.9743778032
  N         5.8601504297       14.6058283881       16.7871390139
  N        16.6702301333       18.9799086610        5.9643551797
  N        16.6526955879        8.1545737764       16.7990503814
  N         5.8339255235       18.9776024889       16.7904183732
  N         5.8541163737        8.1559683549        5.9729626263
  N        16.6692236069        3.7840625879       16.7913414573
  N        16.6391589287       14.6072372255        5.9817988159
  N         3.6584287503       16.7808233698       16.7808060986
  N        14.4712756021       16.8451542186        5.9134007227
  N        18.8440836107       16.7877929089        5.9768579515
  N         8.0259605772       16.8039286998       16.8039292144
  N        18.8440820693        5.9768508497       16.7877851977
  N         8.0174560027        5.9504764797        5.9504758673
  N         3.6506131235        5.9851120369        5.9851076736
  N        14.4712757241        5.9134044808       16.8451530782
  N        16.6702246714        5.9643550827       18.9799108930
  N        16.6527043067       16.7990588399        8.1545724833
  N        16.6692180402       16.7913426954        3.7840596574
  N        16.6391579025        5.9817983920       14.6072376928
  N         5.8187848152        5.9743820166        3.7850078419
  N         5.8601416784       16.7871479786       14.6058285263
  N         5.8339301840       16.7904290076       18.9776019616
  N         5.8541194604        5.9729628838        8.1559681797
  C        11.2620264559       15.7696750036       15.7696701791
  H        11.2787777368       14.9943467910       14.9943390503
  C        11.2268869353        4.8658565258        4.8658567506
  H        11.2117530421        4.0906676880        4.0906693051
  C         0.4288760464       15.7221671908        4.9231212941
  H         0.4294370236       14.9457635541        4.1484808749
  C         0.4288679691        4.9231288143       15.7221613082
  H         0.4294365321        4.1484935848       14.9457528724
  C        11.2588275902        6.9829421269       15.7658244744
  H        11.2755107210        7.7578694214       14.9901531836
  C        11.2329129417       17.8893026069        4.8746556998
  H        11.2189820237       18.6673764480        4.1022271727
  C         0.4257425640        7.0419427940        4.9255890557
  H         0.4266877559        7.8177644585        4.1503190593
  C         0.4334178913       17.8420444698       15.7255152218
  H         0.4342137852       18.6169031868       14.9492836181
  C        11.2588251003       15.7658228742        6.9829418953
  H        11.2755115723       14.9901522420        7.7578700187
  C        11.2329106086        4.8746574212       17.8893056930
  H        11.2189825195        4.1022292411       18.6673797460
  C         0.4334058417       15.7255135200       17.8420386351
  H         0.4342151919       14.9492793303       18.6168947604
  C         0.4257404937        4.9255929841        7.0419447971
  H         0.4266887193        4.1503251281        7.8177692160
  C        11.2547349660        6.9816930618        6.9816875555
  H        11.2723062586        7.7569942411        7.7569854640
  C        11.2367932927       17.8856510323       17.8856521938
  H        11.2236633779       18.6609359617       18.6609382793
  C         0.4302506182        7.0388852832       17.8392208409
  H         0.4315083809        7.8145151799       18.6147177969
  C         0.4302451236       17.8392160316        7.0388885314
  H         0.4315110824       18.6147096033        7.8145216719
  C        15.5886459857       11.3789669179       15.7340797775
  H        14.7997397166       11.3752975913       14.9731002628
  C        15.6167736175        0.5613584342        4.9054377370
  H        14.8502804664        0.5619245974        4.1204914537
  C         4.7892693326       11.3808124888        4.9270147704
  H         4.0085482076       11.3807684058        4.1566754585
  C         4.7818785041        0.5620038656       15.7203861475
  H         4.0122672146        0.5622592382       14.9390118696
  C        15.5747012897       11.3776196052        7.0337640338
  H        14.7879520490       11.3736961308        7.7965029843
  C        15.6174881528        0.5617870787       17.8509133765
  H        14.8501710237        0.5623616599       18.6350745690
  C         4.7952814670       11.3814054273       17.8349197610
  H         4.0139488847       11.3808572852       18.6047742443
  C         4.7722899270        0.5603135895        7.0489410918
  H         4.0030636326        0.5603321005        7.8306415565
  C         6.9269381443       11.3820171415       15.7326536806
  H         7.7060846542       11.3829339301       14.9607302120
  C         6.8717580181        0.5614309155        4.9143530659
  H         7.6415261283        0.5621883220        4.1329643987
  C        17.7043629061       11.3825692600        4.9331389369
  H        18.4827824300       11.3846790075        4.1601199870
  C        17.7146953152        0.5617216450       15.7123409883
  H        18.4833146213        0.5613047775       14.9301000388
  C         6.9195725875       11.3801642861        7.0306037870
  H         7.6985325952       11.3806126022        7.8028449850
  C         6.8822281331        0.5626419130       17.8538885148
  H         7.6526280957        0.5630072626       18.6346071238
  C        17.7183745437       11.3829738445       17.8357459080
  H        18.4960196564       11.3849636953       18.6094173796
  C        17.7126167470        0.5615066584        7.0456407633
  H        18.4810389640        0.5610740947        7.8281375641
  C        15.5886506637       15.7340772678       11.3789718674
  H        14.7997444921       14.9730975651       11.3752959479
  C        15.6167772177        4.9054312870        0.5613589642
  H        14.8502888093        4.1204815097        0.5619255579
  C         4.7818816866       15.7203832858        0.5620087381
  H         4.0122701427       14.9390081434        0.5622584250
  C         4.7892677807        4.9270148673       11.3808127183
  H         4.0085446581        4.1566768089       11.3807682250
  C         6.9269360783       15.7326519612       11.3820121705
  H         7.7060825275       14.9607282868       11.3829352452
  C         6.8717560716        4.9143523408        0.5614299290
  H         7.6415244774        4.1329625589        0.5621861250
  C        17.7147000500       15.7123438509        0.5617134539
  H        18.4833185647       14.9301029706        0.5613030062
  C        17.7043611060        4.9331386249       11.3825695231
  H        18.4827789545        4.1601184878       11.3846786646
  C        15.5747055637        7.0337677660       11.3776201705
  H        14.7879585933        7.7965093395       11.3736962436
  C        15.6174973025       17.8509193380        0.5617894431
  H        14.8501822081       18.6350830859        0.5623592205
  C         4.7722877143        7.0489384756        0.5603131161
  H         4.0030610171        7.8306366966        0.5603334686
  C         4.7952805824       17.8349179232       11.3814121186
  H         4.0139481897       18.6047728360       11.3808553855
  C         6.9195752921        7.0306013686       11.3801630760
  H         7.6985360814        7.8028412646       11.3806127857
  C         6.8822302260       17.8538880409        0.5626383229
  H         7.6526291192       18.6346068908        0.5630073243
  C        17.7126123568        7.0456441195        0.5615114380
  H        18.4810328316        7.8281439844        0.5610773751
  C        17.7183818760       17.8357420577       11.3829658424
  H        18.4960287530       18.6094118082       11.3849642123
 Kr        12.9058535325       11.3637002022       11.3637011627
