     409
 i =      96, E =    -5186.5861891416
  N         2.9973730120        5.2097306084       16.0240214452
  C         1.6790663902        5.4802256609       16.2905901348
  N        13.8043064463        5.2057657873        5.2054654644
  C        12.4873515375        5.4774672012        5.4773524232
  N        19.6870099252       17.5727922828       16.0163615086
  C        21.0049907384       17.3032618541       16.2871582644
  N         8.8586818714       17.5770293372        5.2117607031
  C        10.1762324685       17.3045645106        5.4786934286
  N        19.6697838815        5.2033544393        6.7592650722
  C        20.9876025387        5.4773198165        6.4933657588
  N         8.8586908035        5.2117756921       17.5770584474
  C        10.1762235609        5.4787110061       17.3045855446
  N         2.9941979542       17.5794117027        6.7660323740
  C         1.6768497496       17.3064725885        6.4962867261
  N        13.8221048061       17.5732121936       17.5732062154
  C        12.5041080249       17.3041769136       17.3041780660
  N        15.9551186938        3.0462416363        5.2038686226
  C        16.2253224367        1.7284028342        5.4746036162
  N        15.9710381118       13.8652827770       16.0158936657
  C        16.2401027825       12.5477721442       16.2859218640
  N        15.9726188722       19.7287190360       17.5711821089
  C        16.2384386454       21.0468300627       17.2984287745
  N        15.9601829480        8.9110774747        6.7589963833
  C        16.2309989713       10.2281118193        6.4887009753
  N         6.7078822172       19.7393248766        5.2125115422
  C         6.4364433721       21.0569277644        5.4826567784
  N         6.7080586348        8.9161724593       16.0220548895
  C         6.4379862547       10.2335950004       16.2907694577
  N         6.7087588140        3.0563164359       17.5808141032
  C         6.4423447841        1.7380240671       17.3089729749
  N         6.7009305965       13.8711996947        6.7699143564
  C         6.4274805803       12.5541681080        6.5026190128
  N         5.1536665882       16.0239005636        3.0543937457
  C         5.4267750608       16.2924840288        1.7368586461
  N         5.1479780307        5.2119334097       13.8730604215
  C         5.4133576130        5.4848690453       12.5553113328
  N        17.5278386721       16.0145311421       19.7302125052
  C        17.2541242970       16.2820774382       21.0479666722
  N        17.5151251932        5.2022782064        8.9094109732
  C        17.2465270273        5.4722799323       10.2271023124
  N         5.1507931933        6.7674757705       19.7374291090
  C         5.4199820298        6.4982829563       21.0555912699
  N         5.1526800931       17.5789435456        8.9171895110
  C         5.4228223236       17.3076780726       10.2344105456
  N        17.5123141905        6.7586403799        3.0472868465
  C        17.2420733810        6.4898306253        1.7293664569
  N        17.5279184394       17.5710725261       13.8645113619
  C        17.2565584566       17.3015042533       12.5471311033
  N         5.1435044108        3.0545990364        6.7675151304
  C         5.4162148125        1.7369533472        6.4985088841
  N         5.1587980029       13.8722183675       17.5788307500
  C         5.4256319090       12.5544440629       17.3074564983
  N        17.5194915116       19.7305592918        6.7576413187
  C        17.2458085321       21.0480422647        6.4894853814
  N        17.5223209591        8.9092584431       17.5729419875
  C        17.2538998620       10.2269076530       17.3022419787
  N         5.1611701586       19.7372831341       16.0229814211
  C         5.4305724630       21.0553450864       16.2921367503
  N         5.1410583581        8.9182038904        5.2135946400
  C         5.4101295254       10.2354690483        5.4855526882
  N        17.5215663573        3.0476383451       16.0143276759
  C        17.2507928332        1.7294610676       16.2821143499
  N        17.5214182425       13.8645813116        5.2037044097
  C        17.2494868497       12.5472284382        5.4727509544
  N         3.0048410442       16.0243045318       17.5804695907
  C         1.6868522024       16.2909384598       17.3069886491
  N        13.8141230052       16.0160669695        6.7597062244
  C        12.4966444647       16.2862500183        6.4907989436
  N        19.6803483080       16.0166388963        5.2043560098
  C        20.9977562889       16.2867842482        5.4771571348
  N         8.8643997797       16.0206824378       16.0206994892
  C        10.1821207168       16.2899280246       16.2899318831
  N        19.6772832528        6.7593866699       17.5738842148
  C        20.9955708888        6.4927092529       17.3033450140
  N         8.8526710343        6.7686499514        6.7684443545
  C        10.1696414830        6.4973171001        6.4972313419
  N         2.9863288458        6.7674438476        5.2114918208
  C         1.6686407752        6.4973504291        5.4813762779
  N        13.8141235796        6.7597506977       16.0161136054
  C        12.4966477882        6.4908233220       16.2862714854
  N        15.9630508837        5.2019934907       19.7285216936
  C        16.2293155782        5.4739020962       21.0468212329
  N        15.9667328810       16.0166455753        8.9104508871
  C        16.2379423631       16.2862160514       10.2276540947
  N        15.9648181907       17.5697830648        3.0459996492
  C        16.2345874993       17.2979379589        1.7284126701
  N        15.9650634584        6.7593189985       13.8653852383
  C        16.2334467169        6.4887427099       12.5479681828
  N         6.6997234388        5.2120523531        3.0566159472
  C         6.4323981663        5.4826761170        1.7384266254
  N         6.7118031297       16.0209501898       13.8706380853
  C         6.4400412243       16.2900188452       12.5534520934
  N         6.7161598303       17.5799814941       19.7387914884
  C         6.4461110440       17.3086577178       21.0565167370
  N         6.6955145223        6.7709813654        8.9174815282
  C         6.4247537901        6.5029087088       10.2347002676
  N        19.6772917104       17.5739067614        6.7593699089
  C        20.9955646154       17.3033581811        6.4927028693
  N         8.8662602857       17.5770822883       17.5771049722
  C        10.1835141335       17.3059918325       17.3060001698
  N         2.9863210195        5.2114815000        6.7674478928
  C         1.6686461040        5.4813712581        6.4973519109
  N        13.8137620316        5.2038041285       17.5717728543
  C        12.4963370075        5.4750625152       17.3024871004
  N         3.0048278422       17.5804784013       16.0242977057
  C         1.6868680062       17.3069937665       16.2909352230
  N        13.8137594088       17.5717275804        5.2037540296
  C        12.4963373522       17.3024619349        5.4750393679
  N        19.6803577526        5.2043745035       16.0166067579
  C        20.9977471137        5.4771698314       16.2867687903
  N         8.8492350946        5.2132971284        5.2130924805
  C        10.1672596770        5.4814161349        5.4813313950
  N         6.7161454868       19.7387747390       17.5799807376
  C         6.4461092906       21.0565162515       17.3086606751
  N         6.6955840104        8.9175000136        6.7709354168
  C         6.4247778974       10.2347073510        6.5028807249
  N         6.6996538356        3.0566277921        5.2120024615
  C         6.4323745797        1.7384261319        5.4826467877
  N         6.7118175262       13.8706230083       16.0209482946
  C         6.4400408817       12.5534529840       16.2900213600
  N        15.9648450828        3.0460048504       17.5698004546
  C        16.2345898069        1.7284117313       17.2979450954
  N        15.9649923296       13.8653743712        6.7592533236
  C        16.2334088715       12.5479524717        6.4887019628
  N        15.9630817074       19.7284996328        5.2019835114
  C        16.2293303832       21.0468114370        5.4738863725
  N        15.9667299191        8.9104668905       16.0166261865
  C        16.2379432747       10.2276464116       16.2862130136
  N        17.5194585632        6.7576641896       19.7305626810
  C        17.2457849074        6.4895031629       21.0480650319
  N        17.5223129811       17.5729565805        8.9092637511
  C        17.2539007477       17.3022506224       10.2268936165
  N         5.1435583830        6.7675762029        3.0546017401
  C         5.4162434853        6.4985299298        1.7369505642
  N         5.1587873498       17.5788252771       13.8722163760
  C         5.4256263902       17.3074573075       12.5544548601
  N        17.5215470609       16.0143039212        3.0476377980
  C        17.2507874452       16.2821112215        1.7294577824
  N        17.5214849270        5.2037760332       13.8645932427
  C        17.2495277123        5.4727900442       12.5472429398
  N         5.1611773492       16.0229772749       19.7372844342
  C         5.4305778421       16.2921389092       21.0553590751
  N         5.1409978258        5.2136580828        8.9182016102
  C         5.4100957858        5.4855776845       10.2354631413
  N        17.5278335946       19.7302101702       16.0145255152
  C        17.2541169842       21.0479703296       16.2820790483
  N        17.5149965321        8.9094029435        5.2021503675
  C        17.2464630913       10.2271023217        5.4722268452
  N         5.1536694543        3.0543984657       16.0239033477
  C         5.4267740826        1.7368492763       16.2924891338
  N         5.1479997664       13.8730645276        5.2119182758
  C         5.4133714550       12.5553124011        5.4848512698
  N        17.5124157687        3.0472791211        6.7585372002
  C        17.2421216929        1.7293681857        6.4897940741
  N        17.5279207992       13.8645104831       17.5710675283
  C        17.2565609101       12.5471333687       17.3015089318
  N         5.1507642282       19.7374320513        6.7674555532
  C         5.4199693551       21.0555869342        6.4982648531
  N         5.1526781964        8.9171947050       17.5789497626
  C         5.4228241391       10.2344043041       17.3076829847
  N        19.6697671283        6.7592528504        5.2033696599
  C        20.9876018517        6.4933646829        5.4773235146
  N         8.8593341817        6.7648349297       16.0182724489
  C        10.1766010959        6.4933066914       16.2872025802
  N         2.9941931721        6.7660487660       17.5793936760
  C         1.6768553818        6.4962975479       17.3064685127
  N        13.8074741666        6.7618902604        6.7615940994
  C        12.4896403057        6.4935098379        6.4933963697
  N         2.9973700151       16.0240431192        5.2097069788
  C         1.6790766357       16.2905995823        5.4802115345
  N        13.8197848745       16.0175026547       16.0174885648
  C        12.5025829019       16.2882264633       16.2882222365
  N        19.6870190184       16.0163571335       17.5727934151
  C        21.0049834551       16.2871544239       17.3032635806
  N         8.8593445037       16.0182456753        6.7648190555
  C        10.1765945362       16.2871806370        6.4932912743
  N         6.7087549452       17.5808087196        3.0563257973
  C         6.4423467832       17.3089672389        1.7380212395
  N         6.7009173923        6.7699323028       13.8711952593
  C         6.4274629458        6.5026282627       12.5541669755
  N         6.7079083134        5.2125409713       19.7393249913
  C         6.4364634849        5.4826723412       21.0569305866
  N         6.7080645111       16.0220486535        8.9161828536
  C         6.4379867618       16.2907648488       10.2335927894
  N        15.9726297089       17.5711814650       19.7287124799
  C        16.2384405690       17.2984319030       21.0468345705
  N        15.9603216269        6.7591086162        8.9110633177
  C        16.2310534717        6.4887601005       10.2281100956
  N        15.9550139209        5.2039524294        3.0462351055
  C        16.2252880141        5.4746425390        1.7284092447
  N        15.9710315090       16.0158912170       13.8652731867
  C        16.2401062942       16.2859206589       12.5477716984
 Zn        14.6750601567       14.7232715888       14.7232739375
 Cl        13.4425450555       13.4912409694       13.4912424336
 Zn        14.6639040347        3.9099372415        3.9099528361
 Cl        13.4230528573        2.6820489352        2.6820585600
 Zn         3.8581904281       14.7319556661        3.9150685517
 Cl         2.6258713964       13.4968459343        2.6856491715
 Zn         3.8581869296        3.9150648863       14.7319528485
 Cl         2.6258695832        2.6856456975       13.4968443409
 Zn         7.9999229887        8.0583882312       14.7249244641
 Cl         9.2250736255        9.2928927380       13.4879753800
 Zn         8.0001467097       18.8746274013        3.9216736192
 Cl         9.2381015402       20.1012054647        2.6890089364
 Zn        18.8082355324        8.0500465019        3.9074047610
 Cl        20.0375588901        9.2851919324        2.6752132366
 Zn        18.8218551593       18.8665003384       14.7234998672
 Cl        20.0519047064       20.0938906666       13.4841676010
 Zn         7.9999224724       14.7249262034        8.0583839609
 Cl         9.2250735097       13.4879762405        9.2928896061
 Zn         8.0001430002        3.9216742688       18.8746286642
 Cl         9.2381001333        2.6890090946       20.1012061870
 Zn        18.8218518253       14.7235023396       18.8664974027
 Cl        20.0519055392       13.4841725255       20.0938867239
 Zn        18.8082217959        3.9073968926        8.0500510191
 Cl        20.0375612994        2.6752157167        9.2851972192
 Zn        14.6675696954        8.0547069381        8.0547228016
 Cl        13.4370710066        9.2878215583        9.2878244118
 Zn        14.6826450404       18.8671644752       18.8671692032
 Cl        13.4466472752       20.0976605453       20.0976593898
 Zn         3.8564143049        8.0577570487       18.8728165087
 Cl         2.6290572894        9.2972808539       20.1026712661
 Zn         3.8564156143       18.8728174610        8.0577626074
 Cl         2.6290566712       20.1026719170        9.2972820710
 Zn        14.6713706049       14.7228951321        8.0538632210
 Cl        13.4392903518       13.4909616062        9.2864491843
 Zn        14.6720375710        3.9071968294       18.8646357747
 Cl        13.4344664457        2.6772851671       20.0937801760
 Zn         3.8691777577       14.7309131149       18.8740435491
 Cl         2.6366780298       13.4960159949       20.1039579663
 Zn         3.8489980048        3.9175686735        8.0582171924
 Cl         2.6194230731        2.6879583786        9.2959456829
 Zn         7.9937669716        8.0604676145        8.0604793344
 Cl         9.2142140979        9.2986822030        9.2986790607
 Zn         8.0065797022       18.8728580261       18.8728588799
 Cl         9.2489547619       20.1001162357       20.1001169353
 Zn        18.8145237334        8.0499897241       18.8696290579
 Cl        20.0461689719        9.2863398889       20.0982317527
 Zn        18.8145223890       18.8696178424        8.0499897184
 Cl        20.0461691628       20.0982345006        9.2863383446
 Zn        14.6713670973        8.0538580463       14.7228959889
 Cl        13.4392894937        9.2864531556       13.4909635969
 Zn        14.6720363006       18.8646387184        3.9071992223
 Cl        13.4344679009       20.0937792554        2.6772820843
 Zn         3.8489871231        8.0582199836        3.9175734203
 Cl         2.6194196684        9.2959430777        2.6879600329
 Zn         3.8691822127       18.8740385362       14.7309193155
 Cl         2.6366804309       20.1039583810       13.4960149397
 Zn         8.0043505581       14.7260565820       14.7260560701
 Cl         9.2324014961       13.4917395971       13.4917426127
 Zn         7.9923111672        3.9206263186        3.9206421872
 Cl         9.2275100111        2.6894477942        2.6894468640
 Zn        18.8175544439       14.7237517849        3.9103859590
 Cl        20.0443126456       13.4852110778        2.6791293775
 Zn        18.8175483081        3.9103826536       14.7237579861
 Cl        20.0443098382        2.6791268169       13.4852114353
 Zn         5.9319818935        5.9923078488       16.8068661249
 Zn        16.7574736399       16.7927235820       16.7927408656
 Zn        16.7320217830        5.9811024296        5.9811988161
 Zn         5.9319886785       16.8068471520        5.9923165686
 Zn         5.9154416789        5.9933965276        5.9934540162
 Zn        16.7461273510       16.7932556221        5.9809407504
 Zn         5.9409724887       16.8066007982       16.8065786043
 Zn        16.7461025558        5.9808936569       16.7932360312
  N         3.7424634817        5.9875889393       16.8035300549
  N        14.5521678291        5.9824922216        5.9833304299
  N        18.9407096923       16.7942819312       16.7942753810
  N         8.1126209932       16.7988411927        5.9896078239
  N        18.9230747409        5.9791174816        5.9791388807
  N         8.1126176987        5.9895306179       16.7987522006
  N         3.7424682354       16.8034792843        5.9876380133
  N        14.5677130736       16.7948702761       16.7948825904
  N        16.7337279437        3.7933579265        5.9808133319
  N        16.7500487413       14.6112610179       16.7933476370
  N        16.7524982180       18.9827544192       16.7943750634
  N        16.7373188555        8.1637449184        5.9810283458
  N         5.9300468241       18.9918892627        5.9897715606
  N         5.9305139184        8.1704703079       16.8011152951
  N         5.9293490253        3.8019841010       16.8033156348
  N         5.9268317955       14.6189121112        5.9894646306
  N         5.9293639026       16.8033200356        3.8019875193
  N         5.9268748654        5.9894016386       14.6189173756
  N        16.7524932775       16.7943751589       18.9827621459
  N        16.7369630377        5.9806445067        8.1637792262
  N         5.9299661310        5.9896896663       18.9918988898
  N         5.9305134834       16.8011380176        8.1704727590
  N        16.7339840704        5.9805056184        3.7933917789
  N        16.7500698997       16.7933384259       14.6112665825
  N         5.9202636799        3.8022925100        5.9894706756
  N         5.9366730704       14.6182206105       16.8005914846
  N        16.7433257092       18.9828673291        5.9788264218
  N        16.7437629256        8.1634017064       16.7950949464
  N         5.9387511590       18.9915416512       16.8021298587
  N         5.9188779809        8.1715554559        5.9913455552
  N        16.7436084762        3.7933978648       16.7932746041
  N        16.7443122399       14.6113886603        5.9821608994
  N         3.7513389801       16.8042528802       16.8042639887
  N        14.5605314246       16.7937356385        5.9813482334
  N        18.9322948194       16.7954056182        5.9802501941
  N         8.1191822478       16.7994082338       16.7993861513
  N        18.9322865579        5.9801718482       16.7954825422
  N         8.1041294833        5.9912637117        5.9918535019
  N         3.7327554186        5.9894478397        5.9894699626
  N        14.5605243925        5.9812060948       16.7936290688
  N        16.7434033899        5.9787580800       18.9828724404
  N        16.7437880908       16.7950552048        8.1634136106
  N        16.7436777078       16.7933125089        3.7934110455
  N        16.7441000915        5.9819446337       14.6113921261
  N         5.9201100884        5.9892937677        3.8023153264
  N         5.9367059779       16.8005898405       14.6182173559
  N         5.9387222784       16.8021319104       18.9915400998
  N         5.9190334028        5.9911791663        8.1715740309
  C        11.3416010171       15.7385391495       15.7385361286
  H        11.3405177396       14.9629371747       14.9629294893
  C        11.3254637908        4.9289229678        4.9288068206
  H        11.3224711086        4.1533387186        4.1532971423
  C         0.5200055988       15.7376667328        4.9292016507
  H         0.5230189861       14.9615610440        4.1542122829
  C         0.5200036870        4.9292205352       15.7376492859
  H         0.5230174331        4.1542272721       14.9615455507
  C        11.3369609583        7.0421716077       15.7355765755
  H        11.3376229001        7.8173706027       14.9595916922
  C        11.3359310773       17.8542500349        4.9265655729
  H        11.3352163603       18.6302708566        4.1514907711
  C         0.5081551304        7.0465604286        4.9298812285
  H         0.5085914136        7.8228069710        4.1550236460
  C         0.5259678318       17.8547907428       15.7384660745
  H         0.5261021016       18.6301455969       14.9627292659
  C        11.3369623493       15.7355508580        7.0421473208
  H        11.3376241824       14.9595809931        7.8173594675
  C        11.3359317641        4.9265907577       17.8542785064
  H        11.3352157929        4.1515042001       18.6302857559
  C         0.5259679931       15.7384654160       17.8547871609
  H         0.5261034238       14.9627283029       18.6301392229
  C         0.5081574900        4.9298752178        7.0465607558
  H         0.5085928335        4.1550170011        7.8228049549
  C        11.3313061546        7.0460714876        7.0459544121
  H        11.3342686408        7.8216178993        7.8215730416
  C        11.3446753704       17.8554594707       17.8554673944
  H        11.3457443705       18.6309860437       18.6309975053
  C         0.5147245338        7.0453724772       17.8545868487
  H         0.5122056732        7.8212995771       18.6297574277
  C         0.5147256621       17.8545949513        7.0453644519
  H         0.5122091485       18.6297554726        7.8213034450
  C        15.6884155943       11.3881271488       15.7354411210
  H        14.9128026866       11.3887342947       14.9598474536
  C        15.6760069497        0.5668783470        4.9251045588
  H        14.8993183456        0.5657423364        4.1506932565
  C         4.8614817368       11.3959865901        4.9342774137
  H         4.0874237100       11.3967755968        4.1572887789
  C         4.8790482851        0.5753259763       15.7414184704
  H         4.1037430287        0.5739078244       14.9655864950
  C        15.6815104931       11.3885634651        7.0393293357
  H        14.9060814182       11.3893020277        7.8150957520
  C        15.6854984478        0.5668636123       17.8476149078
  H        14.9095660883        0.5656523827       18.6228026261
  C         4.8740801121       11.3951449241       17.8585041708
  H         4.0995941392       11.3961153972       18.6350775098
  C         4.8681486357        0.5753892787        7.0488926487
  H         4.0929904859        0.5738299476        7.8248162047
  C         6.9886415807       11.3929133125       15.7386156352
  H         7.7632859670       11.3918766238       14.9620305196
  C         6.9849936024        0.5786155289        4.9327026757
  H         7.7607492646        0.5802908787        4.1573523658
  C        17.7981797690       11.3865840652        4.9216346171
  H        18.5733496838       11.3856879360        4.1457294721
  C        17.8016865373        0.5694827534       15.7309277222
  H        18.5765157041        0.5709866595       14.9546690326
  C         6.9749772677       11.3938769310        7.0554584918
  H         7.7489657320       11.3927678600        7.8326682765
  C         6.9948007516        0.5780716584       17.8586322109
  H         7.7705972132        0.5794937303       18.6338935484
  C        17.8059919164       11.3865665556       17.8520720446
  H        18.5819738080       11.3858837742       18.6271606781
  C        17.7938921054        0.5694869822        7.0401712237
  H        18.5694797548        0.5710524794        7.8156880591
  C        15.6884182202       15.7354414524       11.3881241909
  H        14.9128100654       14.9598442907       11.3887336048
  C        15.6759803117        4.9251334921        0.5668865385
  H        14.8993173559        4.1506975438        0.5657461088
  C         4.8790518773       15.7414176453        0.5753291613
  H         4.1037458627       14.9655883455        0.5739089470
  C         4.8614516262        4.9343039146       11.3959854115
  H         4.0874046339        4.1573048533       11.3967769198
  C         6.9886418651       15.7386127684       11.3929174826
  H         7.7632887033       14.9620307533       11.3918771369
  C         6.9850189698        4.9327323571        0.5786176387
  H         7.7607615537        4.1573688639        0.5802955550
  C        17.8016865339       15.7309270978        0.5694836423
  H        18.5765189197       14.9546736641        0.5709893981
  C        17.7982429143        4.9216894502       11.3865911072
  H        18.5733802654        4.1457523395       11.3856951525
  C        15.6815639291        7.0393905485       11.3885669753
  H        14.9061015573        7.8151245784       11.3893032027
  C        15.6854989425       17.8476122590        0.5668636822
  H        14.9095693550       18.6228043566        0.5656556107
  C         4.8681719951        7.0489133653        0.5753914198
  H         4.0929955080        7.8248190058        0.5738359090
  C         4.8740748158       17.8585010232       11.3951460570
  H         4.0995882772       18.6350760114       11.3961143498
  C         6.9749563151        7.0554825562       11.3938734994
  H         7.7489599019        7.8326776004       11.3927674368
  C         6.9948036231       17.8586269114        0.5780764866
  H         7.7706000143       18.6338884268        0.5794956053
  C        17.7938463148        7.0402036159        0.5694940042
  H        18.5694514249        7.8157037500        0.5710603358
  C        17.8059931535       17.8520770468       11.3865659239
  H        18.5819779288       18.6271645412       11.3858857398
 Kr         4.7984394096       10.5314714898       10.5314708788
