     409
 i =      96, E =    -5186.5875902743
  N         2.8638346669        5.2028880193       16.0165883188
  C         1.5460579840        5.4751296995       16.2861629127
  N        13.6863276801        5.2059896519        5.2059889141
  C        12.3689365129        5.4762275552        5.4762277898
  N        19.5431723804       17.5761527262       16.0195756297
  C        20.8613039258       17.3024429780       16.2862813328
  N         8.7274361819       17.5734546471        5.2054659230
  C        10.0449590771       17.3027730397        5.4763542678
  N        19.5487275462        5.2059558373        6.7621965702
  C        20.8667707378        5.4752849727        6.4914002048
  N         8.7274372123        5.2054571816       17.5734605130
  C        10.0449612894        5.4763430777       17.3027790105
  N         2.8653733348       17.5732390903        6.7592243272
  C         1.5471698629       17.3022704156        6.4912303558
  N        13.6812040636       17.5734921579       17.5734953141
  C        12.3633772665       17.3032260542       17.3032278399
  N        15.8368615514        3.0516710653        5.2074393186
  C        16.1044098032        1.7338205753        5.4787398194
  N        15.8362373632       13.8671148974       16.0161239353
  C        16.1073180550       12.5498868575       16.2847135805
  N        15.8305250566       19.7339438889       17.5748814668
  C        16.0990200607       21.0518261380       17.3032130524
  N        15.8313041157        8.9164263783        6.7640936145
  C        16.0995687778       10.2329765687        6.4903101026
  N         6.5772024636       19.7308985201        5.2052272558
  C         6.3105498389       21.0490611684        5.4768480600
  N         6.5742766783        8.9117654121       16.0167947437
  C         6.3048401044       10.2289461319       16.2873430784
  N         6.5782782446        3.0478109260       17.5733892025
  C         6.3102147478        1.7300054558       17.3012906554
  N         6.5752905972       13.8655561518        6.7606936669
  C         6.3066600422       12.5481922018        6.4902681507
  N         5.0240414365       16.0162556795        3.0482714782
  C         5.2951416007       16.2844178912        1.7304689376
  N         5.0217346556        5.2032231710       13.8653961255
  C         5.2919540774        5.4730781834       12.5480087428
  N        17.3848162903       16.0178199471       19.7334584895
  C        17.1143566713       16.2865024846       21.0513818805
  N        17.3926811091        5.2140964810        8.9135993236
  C        17.1206830099        5.4795177018       10.2313978510
  N         5.0210536844        6.7603584603       19.7324075666
  C         5.2939616869        6.4922150638       21.0499209178
  N         5.0206450796       17.5743419414        8.9110169034
  C         5.2899142769       17.3043255746       10.2285572555
  N        17.3894616292        6.7658115117        3.0509838132
  C        17.1187481526        6.4962604401        1.7331817878
  N        17.3876142137       17.5753771028       13.8678210895
  C        17.1204479334       17.3034689886       12.5502530664
  N         5.0257423465        3.0485258386        6.7604435161
  C         5.2966081616        1.7307982237        6.4921116535
  N         5.0194031933       13.8657365209       17.5748051720
  C         5.2893042158       12.5483264379       17.3046154212
  N        17.3866499558       19.7340349185        6.7643378613
  C        17.1169135517       21.0520642141        6.4953480021
  N        17.3903924891        8.9133227803       17.5743536054
  C        17.1218661087       10.2306963568       17.3028007509
  N         5.0198109309       19.7319279857       16.0166415654
  C         5.2927536299       21.0495525716       16.2844882864
  N         5.0228798162        8.9108677557        5.2036919419
  C         5.2925856302       10.2283147210        5.4733642326
  N        17.3884601690        3.0501352412       16.0185367865
  C        17.1163261442        1.7324389269       16.2868407237
  N        17.3931298993       13.8680056158        5.2065722542
  C        17.1209723996       12.5507784649        5.4752705431
  N         2.8617554669       16.0158517728       17.5724627626
  C         1.5436508377       16.2843412711       17.3004908274
  N        13.6820319142       16.0172428366        6.7670363314
  C        12.3648278484       16.2867059512        6.4951050198
  N        19.5456887181       16.0213259012        5.2052942057
  C        20.8639579455       16.2888320868        5.4765985245
  N         8.7244822847       16.0174419279       16.0174413257
  C        10.0421654491       16.2873664535       16.2873644358
  N        19.5472354488        6.7619311181       17.5776195355
  C        20.8651112498        6.4928592756       17.3048545032
  N         8.7308977002        6.7622231067        6.7622213565
  C        10.0485538966        6.4924062951        6.4924040003
  N         2.8666547611        6.7582644074        5.2019216260
  C         1.5487174179        6.4894256392        5.4733560932
  N        13.6820332492        6.7670336966       16.0172487864
  C        12.3648183415        6.4951039623       16.2867045902
  N        15.8325865674        5.2072524109       19.7349365114
  C        16.1019839699        5.4783051442       21.0527114564
  N        15.8394374102       16.0141457797        8.9131299629
  C        16.1089875947       16.2836779965       10.2304565606
  N        15.8343792975       17.5756183013        3.0511170210
  C        16.1010773075       17.3035708447        1.7330211024
  N        15.8302263348        6.7539814898       13.8692879041
  C        16.0992597768        6.4853269622       12.5519305634
  N         6.5824604453        5.2056631324        3.0481777047
  C         6.3133605064        5.4769189539        1.7303175507
  N         6.5732073916       16.0175782184       13.8659636185
  C         6.3043350451       16.2877365849       12.5485773251
  N         6.5738953026       17.5738416857       19.7308756215
  C         6.3078090156       17.3014110096       21.0489066634
  N         6.5770681104        6.7608398276        8.9114484237
  C         6.3074750350        6.4903979820       10.2286425279
  N        19.5472405962       17.5776198444        6.7619380054
  C        20.8651027830       17.3048517798        6.4928564552
  N         8.7243721188       17.5736991491       17.5737055090
  C        10.0421857876       17.3034435916       17.3034469115
  N         2.8666550432        5.2019213545        6.7582656664
  C         1.5487184893        5.4733571738        6.4894256778
  N        13.6839224078        5.2099218357       17.5727288864
  C        12.3658960785        5.4785932654       17.3023428335
  N         2.8617568608       17.5724612893       16.0158533709
  C         1.5436509383       17.3004895819       16.2843428612
  N        13.6839181867       17.5727261408        5.2099262425
  C        12.3659012859       17.3023408061        5.4786015611
  N        19.5456854091        5.2053041630       16.0213270363
  C        20.8639655090        5.4766032541       16.2888252713
  N         8.7309081448        5.2063208661        5.2063243462
  C        10.0485093367        5.4764241478        5.4764251165
  N         6.5738952942       19.7308722040       17.5738368015
  C         6.3078054040       21.0489006471       17.3014079804
  N         6.5770663771        8.9114472645        6.7608427911
  C         6.3074791039       10.2286396782        6.4903933853
  N         6.5824573724        3.0481756158        5.2056595016
  C         6.3133613354        1.7303113394        5.4769178644
  N         6.5732016667       13.8659606319       16.0175777838
  C         6.3043190361       12.5485807605       16.2877288767
  N        15.8343849414        3.0511278273       17.5756218456
  C        16.1010685137        1.7330071758       17.3035601577
  N        15.8302068509       13.8692691433        6.7539832899
  C        16.0992565669       12.5519333372        6.4853487292
  N        15.8325799662       19.7349447433        5.2072553788
  C        16.1019825252       21.0526969813        5.4783026901
  N        15.8394520330        8.9131150718       16.0141446692
  C        16.1089892199       10.2304668443       16.2836903448
  N        17.3866495103        6.7643398835       19.7340482241
  C        17.1169194199        6.4953638924       21.0520778500
  N        17.3903784319       17.5743615507        8.9133126589
  C        17.1218593895       17.3027874664       10.2306896475
  N         5.0257451099        6.7604408788        3.0485295408
  C         5.2966096333        6.4921057152        1.7308040014
  N         5.0194017305       17.5748076405       13.8657363709
  C         5.2893103406       17.3046294889       12.5483218358
  N        17.3884548957       16.0185312474        3.0501444119
  C        17.1163240393       16.2868617205        1.7324495178
  N        17.3931438176        5.2065823935       13.8679959072
  C        17.1209729892        5.4752560348       12.5507799201
  N         5.0198088539       16.0166416370       19.7319289949
  C         5.2927528480       16.2844854982       21.0495568553
  N         5.0228777366        5.2036926634        8.9108690493
  C         5.2925779409        5.4733705901       10.2283173524
  N        17.3848158500       19.7334508355       16.0178168134
  C        17.1143536245       21.0513886977       16.2864912170
  N        17.3926712623        8.9136051264        5.2140810705
  C        17.1206834554       10.2313990871        5.4795118451
  N         5.0240366896        3.0482666026       16.0162594405
  C         5.2951395513        1.7304714805       16.2844246601
  N         5.0217384550       13.8653956157        5.2032221011
  C         5.2919617172       12.5480067576        5.4730695381
  N        17.3894629254        3.0509755523        6.7658120454
  C        17.1187431010        1.7331839266        6.4962590491
  N        17.3876205664       13.8678255241       17.5753710671
  C        17.1204553164       12.5502506836       17.3034665944
  N         5.0210574116       19.7324001127        6.7603616023
  C         5.2939631188       21.0499223088        6.4922230348
  N         5.0206446518        8.9110179307       17.5743441430
  C         5.2899075312       10.2285481651       17.3043122048
  N        19.5487331374        6.7621984966        5.2059520779
  C        20.8667711804        6.4914038088        5.4752798699
  N         8.7262471879        6.7616778008       16.0174318969
  C        10.0440295868        6.4925403759       16.2868766594
  N         2.8653704068        6.7592298691       17.5732474331
  C         1.5471722067        6.4912369036       17.3022717123
  N        13.6863177308        6.7619107070        6.7619069970
  C        12.3688584438        6.4922131026        6.4922108058
  N         2.8638351570       16.0165955466        5.2028840849
  C         1.5460570523       16.2861698837        5.4751206881
  N        13.6810898684       16.0169741418       16.0169689162
  C        12.3633553639       16.2870859760       16.2870816979
  N        19.5431707500       16.0195758755       17.5761507886
  C        20.8613033259       16.2862820898       17.3024414141
  N         8.7262482676       16.0174314767        6.7616746575
  C        10.0440279978       16.2868777868        6.4925401001
  N         6.5782806586       17.5733832970        3.0478158623
  C         6.3102214257       17.3012888690        1.7300016176
  N         6.5752952106        6.7606970195       13.8655538023
  C         6.3066561752        6.4902759001       12.5481944717
  N         6.5772040757        5.2052240554       19.7309055632
  C         6.3105462908        5.4768463274       21.0490606214
  N         6.5742792100       16.0167961415        8.9117626442
  C         6.3048564085       16.2873508450       10.2289537546
  N        15.8305334626       17.5748777680       19.7339459174
  C        16.0990361568       17.3032113923       21.0518235997
  N        15.8313115856        6.7641053147        8.9164290994
  C        16.0995690309        6.4903106139       10.2329696910
  N        15.8368613045        5.2074253829        3.0516757913
  C        16.1044085071        5.4787246577        1.7338205700
  N        15.8362376693       16.0161290997       13.8671135005
  C        16.1073186544       16.2847189454       12.5498847975
 Zn        14.5445842226       14.7229506764       14.7229476776
 Cl        13.3211374782       13.4859369403       13.4859409359
 Zn        14.5484827320        3.9126808190        3.9126899500
 Cl        13.3087471421        2.6839406480        2.6839448284
 Zn         3.7305547381       14.7245225237        3.9083779152
 Cl         2.5022733331       13.4890853902        2.6750881581
 Zn         3.7305534664        3.9083775943       14.7245248107
 Cl         2.5022738134        2.6750884924       13.4890901450
 Zn         7.8655055132        8.0547108806       14.7227929026
 Cl         9.1027832692        9.2856265484       13.4936440647
 Zn         7.8655471173       18.8688549199        3.9106605259
 Cl         9.1058590312       20.0995862031        2.6845496028
 Zn        18.6800226573        8.0555122308        3.9154230745
 Cl        19.9098078539        9.2930085512        2.6850245698
 Zn        18.6758689142       18.8708759611       14.7267734613
 Cl        19.9090987623       20.0984138667       13.4901514277
 Zn         7.8655078049       14.7227925549        8.0547096832
 Cl         9.1027828775       13.4936390052        9.2856256710
 Zn         7.8655453266        3.9106548534       18.8688601192
 Cl         9.1058600648        2.6845488347       20.0995911825
 Zn        18.6758677738       14.7267755402       18.8708779320
 Cl        19.9091019125       13.4901556606       20.0984147974
 Zn        18.6800219557        3.9154205664        8.0555118510
 Cl        19.9098114034        2.6850310744        9.2930135514
 Zn        14.5414727343        8.0577597358        8.0577592563
 Cl        13.2547113810        9.2622360338        9.2622355475
 Zn        14.5435884685       18.8692665742       18.8692703201
 Cl        13.3021566832       20.0971627908       20.0971618952
 Zn         3.7297700804        8.0514403752       18.8691861265
 Cl         2.4936154155        9.2884097358       20.0931265172
 Zn         3.7297708026       18.8691827066        8.0514430280
 Cl         2.4936131881       20.0931222318        9.2884119073
 Zn        14.5467100979       14.7216532090        8.0564138562
 Cl        13.3415749824       13.4691680721        9.2961073916
 Zn        14.5456314759        3.9148922453       18.8689034817
 Cl        13.3018783342        2.6817829810       20.0893108457
 Zn         3.7282499109       14.7250624148       18.8692394007
 Cl         2.4960650817       13.4885039055       20.0976042957
 Zn         3.7319401576        3.9086193500        8.0515597084
 Cl         2.5000103690        2.6792383638        9.2873271809
 Zn         7.8700536809        8.0551468741        8.0551482700
 Cl         9.0941112520        9.2915224285        9.2915187865
 Zn         7.8610630407       18.8685833803       18.8685841167
 Cl         9.1022164024       20.0966840895       20.0966825076
 Zn        18.6785150943        8.0541543332       18.8713257725
 Cl        19.9067355566        9.2912805968       20.1033698124
 Zn        18.6785180512       18.8713212884        8.0541499765
 Cl        19.9067304097       20.1033670212        9.2912743432
 Zn        14.5466997038        8.0564146106       14.7216522320
 Cl        13.3415740892        9.2961135606       13.4691648641
 Zn        14.5456400827       18.8688961765        3.9149025653
 Cl        13.3018847722       20.0893014706        2.6817910433
 Zn         3.7319391873        8.0515587209        3.9086216345
 Cl         2.5000077987        9.2873228581        2.6792395653
 Zn         3.7282509551       18.8692382414       14.7250619408
 Cl         2.4960701147       20.0976045343       13.4885015936
 Zn         7.8632454788       14.7233049835       14.7233081314
 Cl         9.0981330817       13.4920780317       13.4920781571
 Zn         7.8727856282        3.9112342112        3.9112346856
 Cl         9.1092023334        2.6809851158        2.6809859023
 Zn        18.6805166779       14.7272698674        3.9109405378
 Cl        19.9167462712       13.4930980553        2.6840329379
 Zn        18.6805138532        3.9109403036       14.7272689032
 Cl        19.9167516099        2.6840263428       13.4930983549
 Zn         5.7942510954        5.9830044151       16.7957137136
 Zn        16.6099550061       16.7993425920       16.7993530428
 Zn        16.6125856463        5.9894960429        5.9894955663
 Zn         5.7942476207       16.7957019213        5.9830074205
 Zn         5.7971200285        5.9837752273        5.9837781271
 Zn        16.6123643266       16.7997828506        5.9874614258
 Zn         5.7923087410       16.7961598560       16.7961652540
 Zn        16.6123845335        5.9874524909       16.7998113052
  N         3.6108392619        5.9799674216       16.7954453461
  N        14.4325314952        5.9841703116        5.9841689269
  N        18.7969128910       16.7998543329       16.7998597945
  N         7.9804466230       16.7958078649        5.9832055105
  N        18.8022745354        5.9845939323        5.9845993816
  N         7.9804350826        5.9832031179       16.7958121308
  N         3.6108386112       16.7954447685        5.9799668678
  N        14.4273716405       16.7953528838       16.7953522174
  N        16.6140372196        3.7981538659        5.9861074430
  N        16.6108208930       14.6141584201       16.7966283416
  N        16.6083508424       18.9870070156       16.7972304804
  N        16.6131612293        8.1685165866        5.9911946660
  N         5.7973888137       18.9848832916        5.9817067394
  N         5.7974598356        8.1648926927       16.7953523098
  N         5.8000839077        3.7947245772       16.7959822894
  N         5.7981109982       14.6120634684        5.9822062485
  N         5.8000839922       16.7959735319        3.7947267634
  N         5.7981113807        5.9822026267       14.6120682813
  N        16.6083480612       16.7972318596       18.9870204811
  N        16.6131757006        5.9912020156        8.1685145797
  N         5.7973898812        5.9817021730       18.9848878419
  N         5.7974590338       16.7953437461        8.1648933745
  N        16.6140403510        5.9861042447        3.7981675368
  N        16.6108156413       16.7966280045       14.6141533922
  N         5.8033999478        3.7950199691        5.9822164411
  N         5.7960039758       14.6124295180       16.7961259727
  N        16.6098650323       18.9877805134        5.9853556022
  N        16.6144689111        8.1668281827       16.7949241426
  N         5.7949417859       18.9846610685       16.7966545942
  N         5.7999012058        8.1647580106        5.9826017535
  N        16.6129486541        3.7973778270       16.7982713219
  N        16.6126836354       14.6153104217        5.9807649479
  N         3.6079747721       16.7952232314       16.7952232120
  N        14.4293457790       16.7952378024        5.9892178680
  N        18.8001623616       16.8008205095        5.9829132352
  N         7.9780349672       16.7956481885       16.7956521977
  N        18.8001617969        5.9829158573       16.8008266108
  N         7.9842886880        5.9842319667        5.9842336324
  N         3.6129654541        5.9794490763        5.9794524985
  N        14.4293405399        5.9892089434       16.7952496129
  N        16.6098546183        5.9853423672       18.9877922028
  N        16.6144682870       16.7949416414        8.1668267240
  N        16.6129537934       16.7982475274        3.7973847020
  N        16.6126826680        5.9807882013       14.6153107008
  N         5.8034009098        5.9822219647        3.7950209817
  N         5.7960057230       16.7961173236       14.6124344585
  N         5.7949371607       16.7966561699       18.9846614313
  N         5.7999040842        5.9825965436        8.1647599509
  C        11.2026296073       15.7369479443       15.7369409183
  H        11.2019339104       14.9613804946       14.9613686255
  C        11.2086487567        4.9259232782        4.9259252937
  H        11.2089407801        4.1504358081        4.1504393403
  C         0.3840718677       15.7368672158        4.9263819291
  H         0.3822789821       14.9609839332        4.1511605430
  C         0.3840717086        4.9263943195       15.7368574003
  H         0.3822815672        4.1511784379       14.9609710058
  C        11.2038079993        7.0441521664       15.7363265094
  H        11.2017753128        7.8196463927       14.9607009288
  C        11.2060505400       17.8524826518        4.9267944962
  H        11.2072285650       18.6275782273        4.1508330359
  C         0.3877739862        7.0406298755        4.9243293107
  H         0.3880943628        7.8163325691        4.1489560266
  C         0.3824852601       17.8503583904       15.7342492696
  H         0.3825866417       18.6250516642       14.9578609732
  C        11.2038057048       15.7363199003        7.0441581369
  H        11.2017769385       14.9606921852        7.8196480398
  C        11.2060434296        4.9267872048       17.8524817520
  H        11.2072235947        4.1508261701       18.6275769965
  C         0.3824868650       15.7342479550       17.8503584803
  H         0.3825861255       14.9578596373       18.6250512529
  C         0.3877752614        4.9243285327        7.0406339598
  H         0.3880929514        4.1489567273        7.8163383573
  C        11.2086353356        7.0429417509        7.0429375700
  H        11.2105274508        7.8185941344        7.8185873364
  C        11.2028602865       17.8535376479       17.8535434343
  H        11.2030029921       18.6290591038       18.6290699559
  C         0.3871016622        7.0428360519       17.8528928628
  H         0.3892917444        7.8190109851       18.6277775003
  C         0.3871006805       17.8528890004        7.0428351764
  H         0.3892894915       18.6277695109        7.8190177317
  C        15.5595228104       11.3900243184       15.7312556921
  H        14.7865740803       11.3897189413       14.9529933297
  C        15.5531548033        0.5739232342        4.9279185447
  H        14.7781126364        0.5755751162        4.1518589092
  C         4.7422695392       11.3879413688        4.9219578617
  H         3.9673686688       11.3875321558        4.1457965907
  C         4.7448438645        0.5705594937       15.7328956452
  H         3.9701394060        0.5717855761       14.9564916223
  C        15.5435280429       11.3934515411        7.0334010179
  H        14.7608672814       11.3964023798        7.8016109279
  C        15.5493540006        0.5728407223       17.8532998587
  H        14.7736128266        0.5738424085       18.6286424602
  C         4.7392634960       11.3882179700       17.8553869794
  H         3.9637292890       11.3877969331       18.6309267107
  C         4.7450378389        0.5710063728        7.0425843880
  H         3.9688858858        0.5724006075        7.8175317341
  C         6.8549456752       11.3889713245       15.7363979424
  H         7.6300902580       11.3892975988       14.9603342545
  C         6.8634629701        0.5690795722        4.9276720088
  H         7.6401578240        0.5680330628        4.1532379964
  C        17.6740188821       11.3900914075        4.9289692621
  H        18.4533067917       11.3882990257        4.1571670260
  C        17.6649171393        0.5715645988       15.7355719642
  H        18.4403132981        0.5709314957       14.9598178356
  C         6.8572288475       11.3886376813        7.0417429976
  H         7.6317102915       11.3886788709        7.8184812157
  C         6.8597803511        0.5689491343       17.8513743291
  H         7.6352135727        0.5680331176       18.6270806981
  C        17.6706339493       11.3906518593       17.8550406143
  H        18.4441035274       11.3908791258       18.6326450109
  C        17.6672648643        0.5720266308        7.0471608845
  H        18.4418545889        0.5709103700        7.8236983754
  C        15.5595289411       15.7312558464       11.3900153037
  H        14.7865787712       14.9529944575       11.3897130834
  C        15.5531567510        4.9279071288        0.5739384493
  H        14.7781221021        4.1518426697        0.5755818738
  C         4.7448471390       15.7328923736        0.5705614701
  H         3.9701430717       14.9564885680        0.5717861478
  C         4.7422583410        4.9219683009       11.3879426759
  H         3.9673563028        4.1458083450       11.3875343501
  C         6.8549622530       15.7364119608       11.3889717516
  H         7.6301048563       14.9603479363       11.3892985967
  C         6.8634635878        4.9276701970        0.5690847858
  H         7.6401609718        4.1532375723        0.5680377205
  C        17.6649341492       15.7355756068        0.5715606198
  H        18.4403287109       14.9598195640        0.5709327581
  C        17.6740163008        4.9289717031       11.3900974857
  H        18.4533159401        4.1571813724       11.3882963812
  C        15.5435188833        7.0333997078       11.3934427248
  H        14.7608655900        7.8016174842       11.3963983594
  C        15.5493679590       17.8533066855        0.5728557484
  H        14.7736230023       18.6286484789        0.5738493301
  C         4.7450318450        7.0425788954        0.5710096763
  H         3.9688776318        7.8175240134        0.5724024148
  C         4.7392786182       17.8553944061       11.3882187930
  H         3.9637405360       18.6309298500       11.3877982828
  C         6.8572227964        7.0417471671       11.3886383407
  H         7.6317076440        7.8184820948       11.3886790870
  C         6.8597811295       17.8513702072        0.5689527319
  H         7.6352136182       18.6270766096        0.5680364304
  C        17.6672543366        7.0471578984        0.5720275483
  H        18.4418420594        7.8236964062        0.5709176119
  C        17.6706357994       17.8550469207       11.3906543694
  H        18.4441011606       18.6326575485       11.3908748881
 Kr        16.4788070228       10.6945020138       10.6944997004
