     409
 i =      96, E =    -5186.5859082258
  N         2.9178219012        5.2024219801       16.0030342575
  C         1.5999236382        5.4725618262       16.2729715901
  N        13.7275124927        5.1622168136        5.1622157404
  C        12.4104752628        5.4343479412        5.4343377158
  N        19.6043430987       17.5671073874       16.0110022993
  C        20.9223011976       17.2948645098       16.2787588278
  N         8.7736475682       17.5817468179        5.1865755824
  C        10.0937183899       17.3155941649        5.4485421417
  N        19.5966346652        5.1997836526        6.7563415184
  C        20.9146697367        5.4726330859        6.4887953181
  N         8.7736537445        5.1865771201       17.5817448718
  C        10.0937074015        5.4485406133       17.3155974055
  N         2.9179086645       17.5575100180        6.7599702333
  C         1.6000233676       17.2885363209        6.4890683934
  N        13.7372698556       17.5933426652       17.5933444442
  C        12.4203929410       17.3209346267       17.3209367236
  N        15.8995805914        3.0372301629        5.1885860620
  C        16.1666867483        1.7208949695        5.4636498918
  N        15.8879060673       13.8597391729       16.0136109346
  C        16.1591693858       12.5411956487       16.2803288372
  N        15.9022453338       19.7255009757       17.5718470680
  C        16.1681252631       21.0422503806       17.2962343363
  N        15.8721312988        8.8995276295        6.7466365707
  C        16.1437963703       10.2186645815        6.4830798257
  N         6.6113393761       19.7251849259        5.1979153480
  C         6.3423036552       21.0420458113        5.4709284043
  N         6.6464283836        8.9043464797       16.0116195998
  C         6.3767401778       10.2225291320       16.2802407855
  N         6.6169294112        3.0406481673       17.5719514391
  C         6.3501278210        1.7232760968       17.2983733182
  N         6.6429552878       13.8601830152        6.7512473031
  C         6.3719569672       12.5421317940        6.4839730297
  N         5.0707152584       16.0072233532        3.0413356081
  C         5.3400400465       16.2766430859        1.7233089026
  N         5.0808701602        5.2013248050       13.8586738950
  C         5.3518460461        5.4720097656       12.5418238989
  N        17.4482462469       16.0064745098       19.7239217880
  C        17.1776404544       16.2738374717       21.0419004134
  N        17.4348109438        5.1986212672        8.9036282993
  C        17.1645533285        5.4718694929       10.2205068349
  N         5.0652672064        6.7627900440       19.7220970380
  C         5.3324373850        6.4930238772       21.0408583489
  N         5.0821879215       17.5586028831        8.9063695491
  C         5.3554347263       17.2908878672       10.2232356946
  N        17.4447666393        6.7547662379        3.0399079965
  C        17.1757007817        6.4865224593        1.7219432800
  N        17.4488975460       17.5633837772       13.8588446624
  C        17.1790997816       17.2924373045       12.5414412464
  N         5.0624366862        3.0409158059        6.7603774578
  C         5.3312355915        1.7225240247        6.4915763060
  N         5.0838982850       13.8594818835       17.5620506251
  C         5.3559820165       12.5425910848       17.2926089666
  N        17.4473041119       19.7243588802        6.7535266662
  C        17.1768175345       21.0421592792        6.4858388929
  N        17.4478383208        8.9039466689       17.5694935060
  C        17.1785663384       10.2208271324       17.2954958178
  N         5.0727887215       19.7236775148       16.0062116030
  C         5.3409422570       21.0420343348       16.2759236439
  N         5.0791365186        8.9056833308        5.2025242962
  C         5.3512660435       10.2223585842        5.4726290279
  N        17.4449598764        3.0402697810       16.0051480900
  C        17.1760327780        1.7221820747       16.2731224271
  N        17.4372435631       13.8584307882        5.2038444571
  C        17.1658528332       12.5412084436        5.4745976600
  N         2.9215323438       16.0057832264       17.5616238880
  C         1.6036853216       16.2761661127       17.2921612467
  N        13.7393974197       16.0399614958        6.7187687996
  C        12.4207245094       16.3059037156        6.4522091611
  N        19.5999663416       16.0081670355        5.1981270033
  C        20.9181550721       16.2754831197        5.4702072399
  N         8.7903373617       16.0223467337       16.0223468843
  C        10.1056516944       16.2974795201       16.2974811412
  N        19.6007298605        6.7529388817       17.5660962440
  C        20.9185093011        6.4856030842       17.2923718823
  N         8.7826848999        6.7362292897        6.7362272788
  C        10.0974319482        6.4600710105        6.4600682161
  N         2.9145631150        6.7617066794        5.2052872256
  C         1.5966290873        6.4915199209        5.4754211029
  N        13.7393964831        6.7187724094       16.0399660118
  C        12.4207222715        6.4522144754       16.3059128791
  N        15.9013615232        5.1882715694       19.7260169001
  C        16.1674927678        5.4633279256       21.0425938603
  N        15.8864402280       16.0207253951        8.8998633530
  C        16.1584059012       16.2837518412       10.2189785578
  N        15.8996474139       17.5713547536        3.0376737587
  C        16.1668138966       17.2958248314        1.7211741043
  N        15.8753927919        6.7530314943       13.8605209195
  C        16.1454623719        6.4863673193       12.5416543434
  N         6.6078684043        5.1947795512        3.0389559968
  C         6.3407751442        5.4692652095        1.7220002742
  N         6.6471743026       16.0135087992       13.8611388330
  C         6.3768224481       16.2814164415       12.5431778253
  N         6.6197090933       17.5701397411       19.7255698263
  C         6.3513881307       17.2974112178       21.0428605550
  N         6.6423206282        6.7507597846        8.9027472139
  C         6.3718870431        6.4840118444       10.2211991144
  N        19.6007298048       17.5660833826        6.7529374051
  C        20.9185120763       17.2923697372        6.4856032091
  N         8.7787611835       17.5784134055       17.5784183461
  C        10.0987372608       17.3134347159       17.3134393225
  N         2.9145647862        5.2052868376        6.7617078047
  C         1.5966266029        5.4754226579        6.4915191207
  N        13.7318517551        5.1662245396       17.5969802582
  C        12.4150420543        5.4378969308       17.3234195515
  N         2.9215264227       17.5616158416       16.0057957309
  C         1.6037080209       17.2921695667       16.2761607515
  N        13.7318565373       17.5969714873        5.1662239837
  C        12.4150393111       17.3234105897        5.4378915767
  N        19.5999659769        5.1981301731       16.0081694309
  C        20.9181551513        5.4702130665       16.2754812433
  N         8.7693530140        5.1807682198        5.1807715007
  C        10.0894488074        5.4442273314        5.4442276131
  N         6.6197164211       19.7255682384       17.5701415321
  C         6.3513829553       21.0428713624       17.2974060947
  N         6.6423160100        8.9027471803        6.7507612315
  C         6.3718874542       10.2211986174        6.4840159673
  N         6.6078673935        3.0389554163        5.1947758917
  C         6.3407755244        1.7219996175        5.4692626740
  N         6.6471719018       13.8611388983       16.0135092963
  C         6.3768209531       12.5431855476       16.2814189818
  N        15.8996391794        3.0376679747       17.5713666965
  C        16.1668175868        1.7211744168       17.2958309831
  N        15.8753884292       13.8605148736        6.7530351367
  C        16.1454229243       12.5416528470        6.4863406631
  N        15.9013632360       19.7260061858        5.1882787347
  C        16.1674899796       21.0425911523        5.4633368091
  N        15.8864378208        8.8998670555       16.0207260175
  C        16.1584085231       10.2189827029       16.2837449598
  N        17.4473035999        6.7535391141       19.7243676288
  C        17.1768194730        6.4858418757       21.0421650428
  N        17.4478358722       17.5694890437        8.9039425951
  C        17.1785653185       17.2955037389       10.2208261160
  N         5.0624352771        6.7603781747        3.0409160566
  C         5.3312378771        6.4915727278        1.7225249041
  N         5.0838976717       17.5620474364       13.8594773325
  C         5.3559776633       17.2926087505       12.5425998252
  N        17.4449639342       16.0051419240        3.0402699205
  C        17.1760252272       16.2731210335        1.7221815709
  N        17.4372367220        5.2038481977       13.8584391845
  C        17.1658762314        5.4746371401       12.5412103186
  N         5.0727811117       16.0062052284       19.7236731195
  C         5.3409466837       16.2759251919       21.0420468058
  N         5.0791388385        5.2025289953        8.9056823957
  C         5.3512634341        5.4726291414       10.2223582555
  N        17.4482435692       19.7239217600       16.0064700316
  C        17.1776364480       21.0419077312       16.2738282421
  N        17.4348170897        8.9036353131        5.1986148931
  C        17.1645418169       10.2205097435        5.4718412490
  N         5.0707104296        3.0413374392       16.0072284552
  C         5.3400343249        1.7233084925       16.2766452363
  N         5.0808687500       13.8586756076        5.2013207256
  C         5.3518489760       12.5418171355        5.4720097103
  N        17.4447707382        3.0399076004        6.7547635245
  C        17.1757069286        1.7219389989        6.4865122487
  N        17.4488916203       13.8588444508       17.5633839853
  C        17.1790889050       12.5414480710       17.2924378408
  N         5.0652697683       19.7220936715        6.7627911402
  C         5.3324366313       21.0408615351        6.4930274902
  N         5.0821870039        8.9063736419       17.5586057402
  C         5.3554384336       10.2232265512       17.2908870509
  N        19.5966344595        6.7563444474        5.1997819699
  C        20.9146655802        6.4887967258        5.4726315832
  N         8.7865250229        6.7387828928       16.0222588707
  C        10.1015320782        6.4622407628       16.2974812770
  N         2.9179022365        6.7599691073       17.5575143189
  C         1.6000279116        6.4890661563       17.2885384143
  N        13.7344079344        6.7167374845        6.7167353407
  C        12.4160694112        6.4502272822        6.4502153075
  N         2.9178211312       16.0030381337        5.2024161212
  C         1.5999296879       16.2729736302        5.4725572785
  N        13.7440735302       16.0380232465       16.0380192492
  C        12.4253985089       16.3049563728       16.3049548948
  N        19.6043469063       16.0109974487       17.5671070124
  C        20.9222962653       16.2787625331       17.2948573745
  N         8.7865288890       16.0222630255        6.7387760491
  C        10.1015194594       16.2974772959        6.4622415908
  N         6.6169297153       17.5719459701        3.0406508933
  C         6.3501341935       17.2983745943        1.7232718297
  N         6.6429611406        6.7512506247       13.8601847093
  C         6.3719557805        6.4839695664       12.5421235940
  N         6.6113401514        5.1979165371       19.7251847513
  C         6.3423012944        5.4709313040       21.0420465446
  N         6.6464312857       16.0116188921        8.9043508682
  C         6.3767423139       16.2802385858       10.2225192893
  N        15.9022513220       17.5718497415       19.7254953066
  C        16.1681340784       17.2962388949       21.0422532877
  N        15.8721380129        6.7466395770        8.8995202254
  C        16.1438255929        6.4830961886       10.2186592505
  N        15.8995816947        5.1885781582        3.0372320090
  C        16.1666805331        5.4636483312        1.7208938622
  N        15.8879080299       16.0136128808       13.8597321724
  C        16.1591771796       16.2803284710       12.5411956669
 Zn        14.5953194908       14.7435297398       14.7435234246
 Cl        13.2846885121       13.5541462434       13.5541444248
 Zn        14.6095726785        3.8821674741        3.8821729422
 Cl        13.4183658947        2.6296742389        2.6296802998
 Zn         3.7845702497       14.7146107239        3.9072653296
 Cl         2.5493922266       13.4766325063        2.6830727286
 Zn         3.7845698058        3.9072667265       14.7146080683
 Cl         2.5493925273        2.6830723773       13.4766305249
 Zn         7.9417515020        8.0373329375       14.7234553506
 Cl         9.1665643671        9.2709264066       13.4867642119
 Zn         7.9008096972       18.8730839377        3.8997002493
 Cl         9.1303723657       20.1095372471        2.6679289523
 Zn        18.7298230174        8.0494892501        3.9053633326
 Cl        19.9583052496        9.2896489553        2.6770320668
 Zn        18.7388821980       18.8587657478       14.7176058110
 Cl        19.9685606481       20.0862514655       13.4771174397
 Zn         7.9417518350       14.7234565403        8.0373309621
 Cl         9.1665655099       13.4867619482        9.2709204173
 Zn         7.9008118373        3.8997019656       18.8730821478
 Cl         9.1303706673        2.6679296905       20.1095394435
 Zn        18.7388801262       14.7176054969       18.8587605193
 Cl        19.9685599519       13.4771209197       20.0862505574
 Zn        18.7298251831        3.9053648431        8.0494876225
 Cl        19.9583064893        2.6770354448        9.2896560900
 Zn        14.5759450429        8.0112385644        8.0112348539
 Cl        13.2605362273        9.1979301415        9.1979294781
 Zn        14.6128735729       18.8785919206       18.8785922570
 Cl        13.4135827684       20.1267046922       20.1267018810
 Zn         3.7824482466        8.0552160624       18.8458614249
 Cl         2.5455436500        9.2936187699       20.0687454698
 Zn         3.7824497658       18.8458610066        8.0552172865
 Cl         2.5455450316       20.0687422122        9.2936201045
 Zn        14.5875324733       14.7554320474        8.0195399434
 Cl        13.2747707453       13.6033437728        9.2439473529
 Zn        14.6107033186        3.8846406099       18.8802802037
 Cl        13.4150482973        2.6302779393       20.1260540547
 Zn         3.7863740188       14.7149497116       18.8531659399
 Cl         2.5515337807       13.4770691226       20.0782105728
 Zn         3.7803659919        3.9110283591        8.0546161852
 Cl         2.5424210509        2.6912137917        9.2942018597
 Zn         7.9401722121        8.0346562898        8.0346549981
 Cl         9.1691207094        9.2680280518        9.2680253354
 Zn         7.9057530549       18.8690831248       18.8690894306
 Cl         9.1404247392       20.1006928463       20.1006882979
 Zn        18.7378575590        8.0459687414       18.8630891853
 Cl        19.9700953288        9.2783232659       20.0953676467
 Zn        18.7378629834       18.8630887906        8.0459652726
 Cl        19.9701007181       20.0953709977        9.2783228501
 Zn        14.5875294614        8.0195386066       14.7554303039
 Cl        13.2747614876        9.2439495360       13.6033432218
 Zn        14.6107064721       18.8802804979        3.8846394040
 Cl        13.4150466601       20.1260564964        2.6302741630
 Zn         3.7803643484        8.0546143624        3.9110312231
 Cl         2.5424191455        9.2941985043        2.6912156703
 Zn         3.7863712665       18.8531640419       14.7149546704
 Cl         2.5515357368       20.0782119435       13.4770669525
 Zn         7.9434123621       14.7242003705       14.7242010387
 Cl         9.1639217763       13.4869956137       13.4869938298
 Zn         7.8953215954        3.8945559032        3.8945564791
 Cl         9.1167497689        2.6563581513        2.6563593589
 Zn        18.7308161400       14.7148850888        3.9078069489
 Cl        19.9572228393       13.4660699434        2.6854684385
 Zn        18.7308113595        3.9078032631       14.7148875153
 Cl        19.9572219253        2.6854647223       13.4660698741
 Zn         5.8481626757        5.9745365479       16.7844821625
 Zn        16.6692700861       16.7967813182       16.7967810605
 Zn        16.6646868335        5.9601403478        5.9601358345
 Zn         5.8481700875       16.7844760658        5.9745352890
 Zn         5.8443360938        5.9722531765        5.9722518826
 Zn        16.6671977826       16.8008119378        5.9616407250
 Zn         5.8517950759       16.7853625400       16.7853574481
 Zn        16.6671841092        5.9616309513       16.8008513833
  N         3.6641859911        5.9813976647       16.7800332704
  N        14.4776861013        5.9386815371        5.9387016325
  N        18.8578697644       16.7901419106       16.7901297886
  N         8.0335514270       16.7995969992        5.9664999558
  N        18.8503767103        5.9766166930        5.9766188321
  N         8.0335486672        5.9664812098       16.7996153677
  N         3.6641886915       16.7800252488        5.9813877979
  N        14.4870251653       16.8166569918       16.8166553359
  N        16.6728366418        3.7847360004        5.9693510266
  N        16.6678312860       14.6060187229       16.7900297925
  N        16.6766165898       18.9783093904       16.7916451050
  N        16.6533417584        8.1547363478        5.9698671526
  N         5.8390005669       18.9768251609        5.9792621720
  N         5.8629474858        8.1588576733       16.7849443126
  N         5.8432043595        3.7877068796       16.7907113366
  N         5.8618801858       14.6056457041        5.9753872816
  N         5.8432131159       16.7907125016        3.7877063212
  N         5.8618723963        5.9753791180       14.6056482887
  N        16.6766281177       16.7916391652       18.9783091490
  N        16.6532959510        5.9698139297        8.1547378096
  N         5.8389955798        5.9792666686       18.9768277223
  N         5.8629478530       16.7849448290        8.1588578774
  N        16.6728529446        5.9693347257        3.7847394209
  N        16.6678300094       16.7900268839       14.6060161548
  N         5.8348370921        3.7865833485        5.9759527117
  N         5.8648939562       14.6065461749       16.7880710746
  N        16.6756025291       18.9788791575        5.9685449984
  N        16.6661500527        8.1550997180       16.7982636215
  N         5.8463606824       18.9777743223       16.7890889313
  N         5.8600558656        8.1577076551        5.9756407860
  N        16.6729777697        3.7851649884       16.7905494343
  N        16.6568449819       14.6062957497        5.9770110218
  N         3.6679412190       16.7834394321       16.7834132887
  N        14.4822108745       16.8200550726        5.9419463317
  N        18.8540168738       16.7887649345        5.9742672409
  N         8.0380432525       16.7975828031       16.7975860217
  N        18.8540123121        5.9742569116       16.7887754477
  N         8.0293557773        5.9617999481        5.9618031499
  N         3.6607156095        5.9834649787        5.9834565286
  N        14.4822102733        5.9419369368       16.8200567968
  N        16.6755924615        5.9685506105       18.9788819352
  N        16.6661784904       16.7982482917        8.1551001799
  N        16.6729895606       16.7905682075        3.7851632906
  N        16.6567585876        5.9769326436       14.6062962386
  N         5.8348392658        5.9759528377        3.7865823119
  N         5.8648961351       16.7880682254       14.6065426870
  N         5.8463734348       16.7891067296       18.9777684608
  N         5.8600503025        5.9756323615        8.1577083286
  C        11.2689034986       15.7508076638       15.7508062237
  H        11.2774309093       14.9752239490       14.9752197350
  C        11.2453459797        4.8885604833        4.8885582331
  H        11.2362669498        4.1130932857        4.1130955507
  C         0.4390214350       15.7234115535        4.9218685296
  H         0.4397179353       14.9470728377        4.1471578172
  C         0.4390190986        4.9218753996       15.7234042139
  H         0.4397152776        4.1471691638       14.9470598772
  C        11.2652805994        7.0065390913       15.7499804404
  H        11.2750053224        7.7817661979       14.9740281162
  C        11.2500667877       17.8708665443        4.8934820394
  H        11.2417642066       18.6478627171        4.1195615826
  C         0.4356755826        7.0406666557        4.9243605484
  H         0.4362573495        7.8164949825        4.1491047535
  C         0.4430324686       17.8432839462       15.7267012461
  H         0.4436024879       18.6181261801       14.9504463700
  C        11.2652775747       15.7499771547        7.0065344099
  H        11.2750043268       14.9740282875        7.7817593735
  C        11.2500634805        4.8934866706       17.8708681844
  H        11.2417618421        4.1195669930       18.6478611798
  C         0.4430288541       15.7266975269       17.8432808499
  H         0.4435939036       14.9504390535       18.6181220468
  C         0.4356739533        4.9243617579        7.0406673338
  H         0.4362582721        4.1491062281        7.8164980367
  C        11.2611767535        7.0057021367        7.0056946326
  H        11.2713796703        7.7812799625        7.7812733374
  C        11.2559912175       17.8676114570       17.8676168921
  H        11.2489185502       18.6430849540       18.6430922740
  C         0.4393686369        7.0378447728       17.8403771458
  H         0.4398894124        7.8135377018       18.6158174602
  C         0.4393673632       17.8403709217        7.0378484572
  H         0.4398893992       18.6158082540        7.8135477892
  C        15.6061691404       11.3794868760       15.7339929138
  H        14.8238926677       11.3775204564       14.9654116455
  C        15.6193420188        0.5616007348        4.9094319299
  H        14.8499962222        0.5616422861        4.1274654115
  C         4.7983375668       11.3820955494        4.9245444305
  H         4.0190309798       11.3820678350        4.1527667409
  C         4.7935157235        0.5626339580       15.7224834894
  H         4.0221099510        0.5628259325       14.9428612569
  C        15.5920157830       11.3797645601        7.0323509430
  H        14.8106057558       11.3779649147        7.8015878990
  C        15.6195706247        0.5614975763       17.8495161735
  H        14.8495543898        0.5615371288       18.6307565559
  C         4.8023558918       11.3826639850       17.8396334946
  H         4.0225565604       11.3822216172       18.6109818174
  C         4.7851448748        0.5617433315        7.0463788429
  H         4.0141869065        0.5620672926        7.8264268377
  C         6.9299343795       11.3830509995       15.7327284607
  H         7.7081721765       11.3835921136       14.9597938900
  C         6.8890951896        0.5620289193        4.9168447415
  H         7.6604641917        0.5622836825        4.1370596265
  C        17.7179455893       11.3811662145        4.9256502457
  H        18.4959337320       11.3819367955        4.1523760389
  C        17.7231988528        0.5622470340       15.7184038729
  H        18.4939242491        0.5624962320       14.9380787075
  C         6.9244488349       11.3816142212        7.0327364955
  H         7.7025197746       11.3818131980        7.8058957163
  C         6.8986846625        0.5631558534       17.8507995811
  H         7.6705768410        0.5634629892       18.6300424293
  C        17.7314500631       11.3816938565       17.8419172357
  H        18.5086351618       11.3828174521       18.6158808926
  C        17.7226971292        0.5621481863        7.0413301779
  H        18.4934041498        0.5621894330        7.8216525815
  C        15.6061740940       15.7339952960       11.3794852276
  H        14.8239006969       14.9654141901       11.3775190290
  C        15.6193503704        4.9094268290        0.5616031823
  H        14.8500090834        4.1274515183        0.5616430919
  C         4.7935207761       15.7224811582        0.5626354392
  H         4.0221134913       14.9428559883        0.5628284639
  C         4.7983342259        4.9245481600       11.3820959322
  H         4.0190253420        4.1527742035       11.3820709345
  C         6.9299335108       15.7327297052       11.3830517830
  H         7.7081727421       14.9597957338       11.3835845702
  C         6.8890986833        4.9168436280        0.5620291345
  H         7.6604665353        4.1370609097        0.5622821199
  C        17.7232045706       15.7184059985        0.5622424534
  H        18.4939301010       14.9380874209        0.5624960891
  C        17.7179645384        4.9256629268       11.3811645907
  H        18.4959334904        4.1523807763       11.3819365615
  C        15.5920317710        7.0323756941       11.3797640598
  H        14.8106179643        7.8015969147       11.3779622677
  C        15.6195723779       17.8495216198        0.5615006066
  H        14.8495588429       18.6307653384        0.5615360261
  C         4.7851411153        7.0463779172        0.5617427216
  H         4.0141836225        7.8264217920        0.5620679486
  C         4.8023538539       17.8396292455       11.3826633538
  H         4.0225525911       18.6109769177       11.3822293699
  C         6.9244536846        7.0327346021       11.3816136626
  H         7.7025277039        7.8058914819       11.3818107381
  C         6.8986839067       17.8507972399        0.5631531091
  H         7.6705764419       18.6300428663        0.5634583608
  C        17.7226880762        7.0413340257        0.5621531095
  H        18.4933939927        7.8216614350        0.5621946399
  C        17.7314569472       17.8419168070       11.3816885013
  H        18.5086470207       18.6158790817       11.3828135079
 Kr        11.5100188769       11.3758924982       11.3758915552
