     409
 i =      96, E =    -5186.5877769441
  N         2.9755307716        5.2047110079       16.0197046655
  C         1.6572014412        5.4755266134       16.2869816692
  N        13.7899495125        5.1993916939        5.1993902425
  C        12.4722048487        5.4690901048        5.4690892320
  N        19.6641157663       17.5698343257       16.0136279187
  C        20.9821815736       17.3002365650       16.2841274184
  N         8.8371733962       17.5713310026        5.2138163109
  C        10.1552526186       17.2999797954        5.4805796823
  N        19.6508307721        5.1987522140        6.7552359782
  C        20.9688927223        5.4725865262        6.4887227599
  N         8.8371682857        5.2138173471       17.5713291398
  C        10.1552486120        5.4805789427       17.2999798886
  N         2.9729072321       17.5756528948        6.7617440789
  C         1.6553499696       17.3028414790        6.4918280479
  N        13.8003547272       17.5694958547       17.5694984368
  C        12.4827106988       17.2995742917       17.2995841975
  N        15.9376132324        3.0410733950        5.1984265318
  C        16.2058536709        1.7234800651        5.4704945655
  N        15.9518942287       13.8620299559       16.0121238087
  C        16.2213377830       12.5448005109       16.2816391993
  N        15.9508165522       19.7252670591       17.5682233357
  C        16.2173579758       21.0432463203       17.2959031446
  N        15.9412276434        8.9062684003        6.7544770088
  C        16.2112784978       10.2235973844        6.4849759622
  N         6.6864358659       19.7335912528        5.2104563441
  C         6.4162325363       21.0513889065        5.4807494144
  N         6.6808346865        8.9132733730       16.0129530067
  C         6.4133082241       10.2307186839       16.2839806029
  N         6.6901127773        3.0525891686       17.5761225968
  C         6.4241550969        1.7340299931       17.3044779155
  N         6.6906821701       13.8682798180        6.7536670401
  C         6.4217578185       12.5507132264        6.4860233956
  N         5.1348475046       16.0196404582        3.0500315339
  C         5.4082379861       16.2883848212        1.7326182393
  N         5.1283267552        5.2052518155       13.8658164386
  C         5.4005400124        5.4754181714       12.5488114798
  N        17.5055679956       16.0115379920       19.7262197009
  C        17.2328259221       16.2793721759       21.0439584566
  N        17.4947515144        5.1974342963        8.9060337380
  C        17.2261448564        5.4680528727       10.2235012310
  N         5.1312335489        6.7663746642       19.7327565985
  C         5.4008991852        6.4973805581       21.0507808943
  N         5.1301743435       17.5736190619        8.9140807895
  C         5.4008218699       17.3034050810       10.2312607822
  N        17.4923945345        6.7548706361        3.0419851890
  C        17.2214645430        6.4867795268        1.7241770606
  N        17.5071483905       17.5682580697       13.8617030320
  C        17.2369390254       17.2980005674       12.5442675335
  N         5.1267523573        3.0499889583        6.7664350479
  C         5.3980524448        1.7320399622        6.4977237634
  N         5.1370777262       13.8684966752       17.5771908463
  C         5.4042874247       12.5509679471       17.3052607830
  N        17.4961289853       19.7259734101        6.7548212940
  C        17.2234203850       21.0434796937        6.4866448914
  N        17.5011140122        8.9066342540       17.5692990348
  C        17.2340492472       10.2244208862       17.2984056973
  N         5.1402134310       19.7333500175       16.0200662378
  C         5.4110511099       21.0512393787       16.2886072725
  N         5.1302201121        8.9113678052        5.2164687654
  C         5.4017577777       10.2292028320        5.4818224876
  N        17.4993060148        3.0430485029       16.0099249401
  C        17.2295515024        1.7250324751       16.2786200554
  N        17.4993415633       13.8606294624        5.2006588567
  C        17.2284423490       12.5432163610        5.4696199209
  N         2.9817919622       16.0204219516       17.5767789494
  C         1.6639597698       16.2874716220       17.3035130511
  N        13.7952430510       16.0128209407        6.7586945375
  C        12.4774263805       16.2832011115        6.4911741338
  N        19.6575987934       16.0135455777        5.2004027862
  C        20.9751919538       16.2837095566        5.4731142705
  N         8.8438075287       16.0144332722       16.0144386458
  C        10.1616252310       16.2839006039       16.2839120172
  N        19.6547000258        6.7559932118       17.5708541641
  C        20.9732397750        6.4889264634       17.3001790359
  N         8.8344228015        6.7536425629        6.7536429285
  C        10.1517290043        6.4837967356        6.4837969215
  N         2.9691046026        6.7633171650        5.2072469629
  C         1.6510311535        6.4925101509        5.4764476630
  N        13.7952394411        6.7586951576       16.0128216697
  C        12.4774228664        6.4911730618       16.2832018471
  N        15.9418421338        5.1980878869       19.7243930151
  C        16.2079587380        5.4701722654       21.0425220921
  N        15.9482548887       16.0116881557        8.9084334064
  C        16.2193064096       16.2814166321       10.2253849253
  N        15.9441348796       17.5659126872        3.0418318708
  C        16.2139099557       17.2948664827        1.7242508356
  N        15.9450804864        6.7577129070       13.8604835298
  C        16.2133461185        6.4864654944       12.5432267080
  N         6.6781999036        5.2068366344        3.0502025433
  C         6.4118687369        5.4796741190        1.7324400877
  N         6.6883594743       16.0172638254       13.8675157544
  C         6.4170623206       16.2861165423       12.5503287166
  N         6.6971736351       17.5753603459       19.7339379889
  C         6.4275737060       17.3041916817       21.0519766330
  N         6.6935373844        6.7652777878        8.9145906803
  C         6.4233023537        6.4922962788       10.2312078729
  N        19.6547034892       17.5708495023        6.7559932971
  C        20.9732442184       17.3001756734        6.4889262064
  N         8.8447691127       17.5704431588       17.5704538884
  C        10.1622355707       17.2999082989       17.2999238296
  N         2.9691045925        5.2072419634        6.7633171701
  C         1.6510308218        5.4764443704        6.4925104418
  N        13.7931518690        5.2005159962       17.5669772985
  C        12.4759281673        5.4740470200       17.2981539008
  N         2.9817929136       17.5767822889       16.0204215973
  C         1.6639603563       17.3035162129       16.2874707490
  N        13.7931555900       17.5669738548        5.2005167802
  C        12.4759315988       17.2981522082        5.4740488955
  N        19.6575948756        5.2004056871       16.0135426629
  C        20.9751889751        5.4731188270       16.2837091047
  N         8.8335057444        5.1980025683        5.1980039064
  C        10.1513490640        5.4678786696        5.4678793212
  N         6.6971754318       19.7339390348       17.5753586378
  C         6.4275732971       21.0519776197       17.3041923976
  N         6.6935369721        8.9145909408        6.7652799658
  C         6.4233033727       10.2312085079        6.4922970549
  N         6.6781983203        3.0502020251        5.2068340160
  C         6.4118688321        1.7324393520        5.4796717657
  N         6.6883571677       13.8675160920       16.0172615580
  C         6.4170603651       12.5503291995       16.2861159584
  N        15.9441321435        3.0418329377       17.5659174186
  C        16.2139114375        1.7242542250       17.2948745385
  N        15.9450834284       13.8604829586        6.7577082800
  C        16.2133425483       12.5432243432        6.4864555637
  N        15.9418416534       19.7243898987        5.1980917814
  C        16.2079540337       21.0425202146        5.4701797574
  N        15.9482469104        8.9084359130       16.0116915963
  C        16.2193057194       10.2253871732       16.2814126160
  N        17.4961242349        6.7548256752       19.7259757927
  C        17.2234205334        6.4866424989       21.0434825923
  N        17.5011195735       17.5692972840        8.9066315120
  C        17.2340488298       17.2984114265       10.2244170863
  N         5.1267500052        6.7664345457        3.0499900953
  C         5.3980498211        6.4977239332        1.7320411979
  N         5.1370773612       17.5771910009       13.8684958926
  C         5.4042873956       17.3052602242       12.5509669152
  N        17.4993068184       16.0099229791        3.0430443964
  C        17.2295497281       16.2786128873        1.7250301123
  N        17.4993414085        5.2006623550       13.8606323773
  C        17.2284470770        5.4696303818       12.5432173404
  N         5.1402124250       16.0200684934       19.7333488055
  C         5.4110515836       16.2886069588       21.0512378963
  N         5.1302178347        5.2164693033        8.9113672898
  C         5.4017551892        5.4818241810       10.2292025509
  N        17.5055679718       19.7262232862       16.0115369055
  C        17.2328272328       21.0439635685       16.2793761574
  N        17.4947501523        8.9060324698        5.1974316668
  C        17.2261386487       10.2234991833        5.4680452659
  N         5.1348433871        3.0500326951       16.0196428722
  C         5.4082345125        1.7326197776       16.2883873636
  N         5.1283297213       13.8658166444        5.2052494950
  C         5.4005429038       12.5488109071        5.4754158200
  N        17.4923976956        3.0419812151        6.7548735601
  C        17.2214634593        1.7241743312        6.4867834641
  N        17.5071449222       13.8617094845       17.5682491357
  C        17.2369416740       12.5442731702       17.2979924571
  N         5.1312361502       19.7327545344        6.7663747262
  C         5.4009019111       21.0507801877        6.4973801818
  N         5.1301739266        8.9140819381       17.5736199986
  C         5.4008215284       10.2312602113       17.3034065102
  N        19.6508308239        6.7552353555        5.1987547018
  C        20.9688928301        6.4887223815        5.4725887304
  N         8.8395594578        6.7701934600       16.0158662342
  C        10.1567663159        6.4970604605       16.2844379103
  N         2.9729046304        6.7617417252       17.5756546975
  C         1.6553479290        6.4918273776       17.3028441431
  N        13.7893076841        6.7557430121        6.7557428508
  C        12.4718804243        6.4851355670        6.4851350082
  N         2.9755331586       16.0197056855        5.2047058511
  C         1.6572041289       16.2869816884        5.4755219372
  N        13.7995233288       16.0134559080       16.0134534570
  C        12.4822300089       16.2835730560       16.2835789033
  N        19.6641152882       16.0136319855       17.5698258025
  C        20.9821787101       16.2841293822       17.3002318230
  N         8.8395642747       16.0158634081        6.7701948935
  C        10.1567696726       16.2844364753        6.4970613052
  N         6.6901175491       17.5761191690        3.0525882393
  C         6.4241591874       17.3044748410        1.7340286307
  N         6.6906816520        6.7536663226       13.8682794977
  C         6.4217562696        6.4860230723       12.5507131220
  N         6.6864357842        5.2104590853       19.7335927523
  C         6.4162316262        5.4807519044       21.0513901890
  N         6.6808368105       16.0129533220        8.9132731304
  C         6.4133104249       16.2839798058       10.2307182827
  N        15.9508151362       17.5682261167       19.7252659651
  C        16.2173559453       17.2958995910       21.0432448062
  N        15.9412300650        6.7544750722        8.9062678491
  C        16.2112841922        6.4849817357       10.2235985548
  N        15.9376200447        5.1984214927        3.0410775931
  C        16.2058603595        5.4704870374        1.7234826242
  N        15.9518932391       16.0121240499       13.8620228319
  C        16.2213349122       16.2816443634       12.5447972983
 Zn        14.6590238009       14.7199024084       14.7198979943
 Cl        13.4222407343       13.4896845937       13.4896892393
 Zn        14.6500880559        3.9041997937        3.9042021227
 Cl        13.4094811498        2.6758441778        2.6758502547
 Zn         3.8402021023       14.7273725019        3.9090287028
 Cl         2.6054568033       13.4952482089        2.6790025355
 Zn         3.8402010788        3.9090311560       14.7273732254
 Cl         2.6054548682        2.6790025980       13.4952500222
 Zn         7.9735219056        8.0572719575       14.7202237013
 Cl         9.1774571827        9.2969873602       13.4662876580
 Zn         7.9781896145       18.8692213220        3.9219575357
 Cl         9.2223842992       20.0922892485        2.6916370985
 Zn        18.7835716763        8.0468992158        3.9034358737
 Cl        20.0157120815        9.2803272146        2.6715395118
 Zn        18.7988168018       18.8635767102       14.7212944737
 Cl        20.0297117316       20.0906469340       13.4821926353
 Zn         7.9735245208       14.7202237462        8.0572719620
 Cl         9.1774586113       13.4662853721        9.2969853327
 Zn         7.9781850322        3.9219584856       18.8692226058
 Cl         9.2223804811        2.6916391678       20.0922916142
 Zn        18.7988162319       14.7212991439       18.8635681019
 Cl        20.0297104251       13.4821987193       20.0906418245
 Zn        18.7835718972        3.9034343606        8.0469004855
 Cl        20.0157124654        2.6715415790        9.2803328247
 Zn        14.6516454387        8.0502206808        8.0502214409
 Cl        13.4318321177        9.2887250504        9.2887270923
 Zn        14.6618875055       18.8638217832       18.8638197803
 Cl        13.4253044264       20.0939488031       20.0939501121
 Zn         3.8383773726        8.0553641143       18.8691407748
 Cl         2.6091229955        9.2940750887       20.0982743392
 Zn         3.8383780439       18.8691404022        8.0553640905
 Cl         2.6091217821       20.0982710699        9.2940755622
 Zn        14.6559212467       14.7193816156        8.0527831944
 Cl        13.4161192391       13.4928127588        9.2836837312
 Zn        14.6549367698        3.9036248046       18.8596150949
 Cl        13.4151999366        2.6740220560       20.0875035947
 Zn         3.8454839869       14.7281688529       18.8719458370
 Cl         2.6140413918       13.4926521119       20.1017728855
 Zn         3.8379233627        3.9186947694        8.0565072137
 Cl         2.6091415587        2.6921220898        9.2988311756
 Zn         7.9927191188        8.0524477965        8.0524485432
 Cl         9.3046600661        9.2426561365        9.2426543078
 Zn         7.9899212877       18.8671982066       18.8671978688
 Cl         9.2338185686       20.0935220629       20.0935200573
 Zn        18.7870074599        8.0471724056       18.8665180277
 Cl        20.0216887815        9.2819075926       20.0945623781
 Zn        18.7870114581       18.8665171096        8.0471698593
 Cl        20.0216885474       20.0945642946        9.2819076118
 Zn        14.6559174496        8.0527841134       14.7193821107
 Cl        13.4161189495        9.2836874385       13.4928116161
 Zn        14.6549389738       18.8596109864        3.9036251986
 Cl        13.4152021872       20.0875010099        2.6740240559
 Zn         3.8379225160        8.0565068298        3.9186991357
 Cl         2.6091364794        9.2988266347        2.6921271601
 Zn         3.8454847344       18.8719471001       14.7281675351
 Cl         2.6140412958       20.1017734886       13.4926501377
 Zn         7.9807319693       14.7215968347       14.7215965990
 Cl         9.1934659796       13.4792493263       13.4792498589
 Zn         7.9638067505        3.9070988203        3.9070981760
 Cl         9.1948334845        2.6738650711        2.6738651619
 Zn        18.7909414400       14.7204190808        3.9067387444
 Cl        20.0209128530       13.4830883726        2.6766778890
 Zn        18.7909373664        3.9067400939       14.7204191690
 Cl        20.0209086132        2.6766775216       13.4830904583
 Zn         5.9032947504        5.9884130956       16.7972189810
 Zn        16.7272180846       16.7885380893       16.7885338416
 Zn        16.7173836675        5.9727677815        5.9727709912
 Zn         5.9032955582       16.7972179861        5.9884115110
 Zn         5.9030175592        5.9877490663        5.9877502004
 Zn        16.7216664671       16.7873606165        5.9744474465
 Zn         5.9102856036       16.7996649144       16.7996628164
 Zn        16.7216616952        5.9744541855       16.7873646482
  N         3.7204354731        5.9828941128       16.7991066517
  N        14.5359056472        5.9776737389        5.9776730884
  N        18.9176148583       16.7915084194       16.7915067763
  N         8.0917374525       16.7943060924        5.9934099844
  N        18.9045517160        5.9749421231        5.9749433519
  N         8.0917333965        5.9934095553       16.7943068900
  N         3.7204385289       16.7991050022        5.9828913007
  N        14.5462580377       16.7913124170       16.7913067551
  N        16.7158347122        3.7880740167        5.9754076014
  N        16.7295553997       14.6082444847       16.7902632859
  N        16.7298693162       18.9790013027       16.7911787015
  N        16.7176468343        8.1594358137        5.9757370649
  N         5.9087864716       18.9864247942        5.9881043990
  N         5.9047844737        8.1673048184       16.7930553800
  N         5.9103581444        3.7979627133       16.7988633143
  N         5.9085269526       14.6136377539        5.9794203847
  N         5.9103624837       16.7988599919        3.7979611863
  N         5.9085250605        5.9794206791       14.6136378998
  N        16.7298718968       16.7911801506       18.9789988024
  N        16.7176457498        5.9757344568        8.1594373886
  N         5.9087840024        5.9881068630       18.9864261652
  N         5.9047876948       16.7930536754        8.1673043122
  N        16.7158357464        5.9754052397        3.7880767587
  N        16.7295522194       16.7902673415       14.6082404891
  N         5.9012152028        3.7968747404        5.9853695107
  N         5.9138068831       14.6146458482       16.7979102796
  N        16.7208742513       18.9783576974        5.9752580296
  N        16.7235592790        8.1607778344       16.7908039740
  N         5.9181001621       18.9870908724       16.7984405419
  N         5.9111991200        8.1666115235        5.9925135597
  N        16.7218282688        3.7890091233       16.7885711213
  N        16.7228192931       14.6070021553        5.9797658895
  N         3.7280915212       16.8003339776       16.8003335673
  N        14.5404366388       16.7894209229        5.9780589073
  N        18.9098125544       16.7924400398        5.9766699880
  N         8.0977194049       16.7928482500       16.7928526100
  N        18.9098084049        5.9766731228       16.7924428212
  N         8.0875462161        5.9763606282        5.9763616458
  N         3.7155672584        5.9858043293        5.9858059531
  N        14.5404324504        5.9780586485       16.7894242087
  N        16.7208682155        5.9752590003       18.9783607979
  N        16.7235690794       16.7907998983        8.1607741220
  N        16.7218356281       16.7885655189        3.7890060756
  N        16.7228115451        5.9797697502       14.6070042928
  N         5.9012147657        5.9853711009        3.7968757792
  N         5.9138086203       16.7979113997       14.6146453171
  N         5.9180973312       16.7984430643       18.9870899646
  N         5.9111994348        5.9925123981        8.1666112594
  C        11.3217337641       15.7332196939       15.7332273114
  H        11.3225473591       14.9576476225       14.9576494339
  C        11.3122239746        4.9181504260        4.9181504011
  H        11.3131598294        4.1426966563        4.1426969101
  C         0.4975064535       15.7346650603        4.9248761284
  H         0.5001438555       14.9587315359        4.1497361740
  C         0.4975034419        4.9248817427       15.7346607727
  H         0.5001403899        4.1497449169       14.9587228473
  C        11.3181167410        7.0448183477       15.7335522961
  H        11.3211618188        7.8205150911       14.9581307001
  C        11.3144808243       17.8488297881        4.9263651714
  H        11.3124866055       18.6234971102        4.1499505969
  C         0.4899934424        7.0413584578        4.9251389963
  H         0.4901139348        7.8176396893        4.1503550343
  C         0.5030792229       17.8515630479       15.7351768196
  H         0.5034099478       18.6268361755       14.9593496519
  C        11.3181199162       15.7335510492        7.0448180200
  H        11.3211644939       14.9581279560        7.8205126881
  C        11.3144770824        4.9263640512       17.8488310943
  H        11.3124821733        4.1499505553       18.6234996052
  C         0.5030768143       15.7351781328       17.8515563549
  H         0.5034066481       14.9593496868       18.6268270230
  C         0.4899929679        4.9251345792        7.0413576874
  H         0.4901127653        4.1503485138        7.8176374042
  C        11.3113745330        7.0350261427        7.0350258225
  H        11.3075993169        7.8106934814        7.8106930706
  C        11.3226322320       17.8501451978       17.8501622807
  H        11.3226747032       18.6256955858       18.6257145897
  C         0.4930349291        7.0410871913       17.8509603671
  H         0.4910134885        7.8171761952       18.6259613800
  C         0.4930379960       17.8509545746        7.0410902612
  H         0.4910173322       18.6259517746        7.8171835877
  C        15.6699262220       11.3855899898       15.7303603916
  H        14.8943534836       11.3863003671       14.9547391929
  C        15.6557514445        0.5625806107        4.9206573826
  H        14.8797272032        0.5621049610        4.1455805737
  C         4.8478162043       11.3873212476        4.9306013953
  H         4.0682330550       11.3841837735        4.1590878106
  C         4.8597542725        0.5712522588       15.7379808528
  H         4.0838057595        0.5702084284       14.9627864290
  C        15.6618148874       11.3835295253        7.0367665859
  H        14.8866942811       11.3832933931        7.8128650521
  C        15.6647241310        0.5631983578       17.8452101724
  H        14.8887716050        0.5624400368       18.6203806608
  C         4.8535400879       11.3914870506       17.8565004278
  H         4.0800960880       11.3918537713       18.6340842524
  C         4.8502364156        0.5707331238        7.0489358736
  H         4.0757337927        0.5693722782        7.8254871301
  C         6.9636533866       11.3901281833       15.7318386326
  H         7.7356999357       11.3894202890       14.9526302610
  C         6.9641210784        0.5726492147        4.9295244528
  H         7.7389084594        0.5745247066        4.1531532726
  C        17.7773751576       11.3831665421        4.9176074205
  H        18.5522793206       11.3829217430        4.1414265523
  C        17.7806628912        0.5650845995       15.7276928398
  H        18.5554032587        0.5664422580       14.9513034161
  C         6.9776730797       11.3926470876        7.0354033448
  H         7.7600877022       11.3973791370        7.8038642568
  C         6.9767299523        0.5737476258       17.8537766982
  H         7.7528028195        0.5751579438       18.6287549944
  C        17.7860307749       11.3837595778       17.8490270277
  H        18.5612708457       11.3828673039       18.6248989936
  C        17.7721188329        0.5642758772        7.0379118831
  H        18.5475653352        0.5653799924        7.8136080470
  C        15.6699278680       15.7303657219       11.3855871061
  H        14.8943593317       14.9547408291       11.3862966363
  C        15.6557603382        4.9206455347        0.5625828127
  H        14.8797401356        4.1455646048        0.5621076531
  C         4.8597562147       15.7379793669        0.5712509477
  H         4.0838075938       14.9627858125        0.5702075457
  C         4.8478115300        4.9306046863       11.3873214263
  H         4.0682260548        4.1590928144       11.3841837189
  C         6.9636553892       15.7318397960       11.3901280538
  H         7.7357027741       14.9526326245       11.3894205956
  C         6.9641216255        4.9295275949        0.5726500166
  H         7.7389101305        4.1531573677        0.5745253954
  C        17.7806591511       15.7276888481        0.5650797426
  H        18.5554011673       14.9513025208        0.5664361445
  C        17.7773839050        4.9176169752       11.3831694919
  H        18.5522889108        4.1414358185       11.3829271528
  C        15.6618200561        7.0367748932       11.3835300867
  H        14.8866976481        7.8128716188       11.3832923000
  C        15.6647209122       17.8452043347        0.5631966664
  H        14.8887698717       18.6203766648        0.5624398921
  C         4.8502326079        7.0489338990        0.5707342079
  H         4.0757277368        7.8254822927        0.5693733022
  C         4.8535387344       17.8564986905       11.3914864905
  H         4.0800929469       18.6340814808       11.3918525159
  C         6.9776730724        7.0354021273       11.3926466565
  H         7.7600893469        7.8038615010       11.3973783215
  C         6.9767332561       17.8537745938        0.5737462131
  H         7.7528066558       18.6287524011        0.5751564491
  C        17.7721183976        7.0379117539        0.5642785131
  H        18.5475609197        7.8136118181        0.5653821794
  C        17.7860280241       17.8490333457       11.3837551783
  H        18.5612705845       18.6249033839       11.3828640219
 Kr         6.4446082829       10.9805536463       10.9805535751
