     409
 i =     176, E =    -5136.7100377908
  N         2.8549649194        5.2044947784       16.0232532862
  C         1.5365375719        5.4741470017       16.2916923469
  N        13.6651141811        5.2002891121        5.2003516143
  C        12.3478348663        5.4717589184        5.4717879887
  N        19.5409733499       17.5743135984       16.0178259271
  C        20.8590055942       17.3056124915       16.2898138272
  N         8.7155285134       17.5802102468        5.2055819309
  C        10.0333814930       17.3075938476        5.4736281855
  N        19.5290183909        5.1987717364        6.7551738509
  C        20.8467462651        5.4726042022        6.4883757168
  N         8.7153912111        5.2056275200       17.5801533289
  C        10.0332475116        5.4736401191       17.3075785807
  N         2.8521820550       17.5788476954        6.7616825696
  C         1.5347166891       17.3071953197        6.4902246553
  N        13.6804859931       17.5743941683       17.5744682715
  C        12.3622565282       17.3051456762       17.3051773779
  N        15.8166895474        3.0439192364        5.1984556177
  C        16.0871085802        1.7264238449        5.4692866948
  N        15.8321493638       13.8637157703       16.0160887566
  C        16.1011393035       12.5460943716       16.2864499023
  N        15.8328308920       19.7272511427       17.5731349634
  C        16.1003584494       21.0449812739       17.3015924830
  N        15.8229666816        8.9079609477        6.7556382587
  C        16.0939253432       10.2253583444        6.4860522982
  N         6.5606207861       19.7363811448        5.2069116732
  C         6.2884930130       21.0537610194        5.4761511692
  N         6.5625819952        8.9147437694       16.0231381035
  C         6.2938416848       10.2324995112       16.2935971588
  N         6.5625617877        3.0524255080       17.5831842503
  C         6.2951927565        1.7344366676       17.3120714300
  N         6.5602968627       13.8704488541        6.7618492062
  C         6.2893908751       12.5531157654        6.4918287488
  N         5.0094138633       16.0258801417        3.0510416866
  C         5.2808343865       16.2954231708        1.7335853053
  N         5.0072243216        5.2042801392       13.8717129840
  C         5.2749825763        5.4750593184       12.5538434189
  N        17.3854061764       16.0147646057       19.7281345091
  C        17.1143798149       16.2842525641       21.0456480485
  N        17.3763555798        5.1980143593        8.9073166510
  C        17.1082480251        5.4691808390       10.2249110126
  N         5.0053816311        6.7632771382       19.7350377387
  C         5.2731356878        6.4923349436       21.0529155092
  N         5.0086311118       17.5806348110        8.9156210642
  C         5.2793881612       17.3104666106       10.2330125820
  N        17.3723476773        6.7546336253        3.0448897963
  C        17.1024229613        6.4851877548        1.7272469657
  N        17.3869219269       17.5725480509       13.8631761495
  C        17.1162572560       17.3025899360       12.5457458493
  N         4.9995277130        3.0517748142        6.7615282314
  C         5.2700499902        1.7341383077        6.4914849538
  N         5.0132474880       13.8715655882       17.5815157054
  C         5.2815961597       12.5538663246       17.3108350659
  N        17.3780223604       19.7287680414        6.7543692126
  C        17.1055974697       21.0461866038        6.4852355327
  N        17.3816393880        8.9070758589       17.5747511007
  C        17.1135899447       10.2248388757       17.3037014761
  N         5.0145262901       19.7350132289       16.0243691858
  C         5.2835662256       21.0526669503       16.2946509850
  N         5.0017410452        8.9155057782        5.2051764561
  C         5.2723786289       10.2329825348        5.4754014915
  N        17.3807297504        3.0445239711       16.0139918355
  C        17.1117637595        1.7266809331       16.2839094944
  N        17.3817162222       13.8630079133        5.1998296727
  C        17.1109619504       12.5455775370        5.4699985239
  N         2.8594291185       16.0247426943       17.5810563010
  C         1.5414552343       16.2931061061       17.3088199816
  N        13.6735301072       16.0170225536        6.7551962859
  C        12.3555726908       16.2885361240        6.4862104188
  N        19.5366906798       16.0179785329        5.1992868851
  C        20.8542518947       16.2890790651        5.4712882048
  N         8.7199071954       16.0226398509       16.0225931876
  C        10.0382719724       16.2917837915       16.2917599149
  N        19.5339100709        6.7549057549       17.5752853985
  C        20.8522388598        6.4867761231       17.3051717101
  N         8.7102438192        6.7606861125        6.7606508290
  C        10.0277165562        6.4894991271        6.4894836313
  N         2.8466316679        6.7639493122        5.2077627292
  C         1.5287113177        6.4926737779        5.4768933820
  N        13.6733929721        6.7551514532       16.0170767283
  C        12.3554910765        6.4861896393       16.2885654037
  N        15.8243162014        5.1970205962       19.7271173325
  C        16.0907937901        5.4686003859       21.0452055527
  N        15.8280482595       16.0175209495        8.9080349361
  C        16.0989670404       16.2871025651       10.2254674012
  N        15.8271757877       17.5714157961        3.0435213247
  C        16.0975404838       17.3007854963        1.7260566556
  N        15.8273593299        6.7566996833       13.8640525104
  C        16.0961268627        6.4865114139       12.5462814581
  N         6.5540807454        5.2051889204        3.0524602600
  C         6.2850837366        5.4754263397        1.7347191108
  N         6.5661085657       16.0237911213       13.8707571069
  C         6.2957809661       16.2938922255       12.5532517349
  N         6.5690148030       17.5813874553       19.7357308145
  C         6.2985098562       17.3111690927       21.0532666560
  N         6.5562492719        6.7622696283        8.9148298237
  C         6.2871838593        6.4919732633       10.2323665456
  N        19.5340065037       17.5752257606        6.7549526595
  C        20.8523718815       17.3051870610        6.4867973243
  N         8.7225128882       17.5790772966       17.5790069747
  C        10.0400433598       17.3075671951       17.3075333583
  N         2.8466862478        5.2078173596        6.7638922029
  C         1.5287174995        5.4769242088        6.4926431386
  N        13.6732948218        5.1982415685       17.5728753784
  C        12.3554263673        5.4702801278       17.3042113460
  N         2.8593822232       17.5811008414       16.0246763262
  C         1.5414524514       17.3088583956       16.2930592414
  N        13.6734547093       17.5728060742        5.1982894960
  C        12.3555621481       17.3041915963        5.4702856351
  N        19.5365959855        5.1992313030       16.0180294060
  C        20.8541086671        5.4712823277       16.2890764126
  N         8.7079642116        5.2044542260        5.2043985601
  C        10.0260845827        5.4737623721        5.4737385011
  N         6.5689977826       19.7358286792       17.5813013505
  C         6.2984327015       21.0533333003       17.3110899622
  N         6.5562592976        8.9148611550        6.7622141720
  C         6.2872201305       10.2324474200        6.4919145800
  N         6.5540629432        3.0525632190        5.2050634461
  C         6.2851037754        1.7347867304        5.4752983264
  N         6.5660869790       13.8707861432       16.0237496213
  C         6.2957280354       12.5533360675       16.2938415490
  N        15.8269764632        3.0434414916       17.5714973044
  C        16.0973828816        1.7259795910       17.3008400929
  N        15.8274773101       13.8640068393        6.7567739913
  C        16.0962205034       12.5461989223        6.4865934262
  N        15.8244603662       19.7270391908        5.1970984367
  C        16.0908963121       21.0451287975        5.4686773069
  N        15.8279586120        8.9079820341       16.0176069944
  C        16.0988848979       10.2253796858       16.2871878585
  N        17.3779194005        6.7542708400       19.7288476376
  C        17.1055004293        6.4851309779       21.0462356448
  N        17.3817345773       17.5746510616        8.9071648892
  C        17.1136860538       17.3036205539       10.2249185631
  N         4.9995138737        6.7616377152        3.0516885092
  C         5.2700206616        6.4915982375        1.7340932174
  N         5.0132745336       17.5815511752       13.8714937670
  C         5.2816443059       17.3108948343       12.5537814012
  N        17.3808961213       16.0138992024        3.0446054377
  C        17.1119229374       16.2838312150        1.7267245551
  N        17.3815920045        5.1997441263       13.8630903296
  C        17.1108533968        5.4699233183       12.5456579031
  N         5.0145504987       16.0244693317       19.7349257953
  C         5.2836362095       16.2947309781       21.0526278219
  N         5.0017291318        5.2052297243        8.9154410326
  C         5.2723457077        5.4754695929       10.2328983049
  N        17.3853599695       19.7280476103       16.0148463213
  C        17.1142864511       21.0456150038       16.2843234297
  N        17.3763887750        8.9072471624        5.1980513298
  C        17.1082970439       10.2248185072        5.4692469396
  N         5.0092629693        3.0511254006       16.0257996196
  C         5.2806887809        1.7336392738       16.2953509538
  N         5.0073207920       13.8717841510        5.2042034562
  C         5.2750739447       12.5539231423        5.4749913682
  N        17.3723500359        3.0448206929        6.7547328877
  C        17.1024594682        1.7272036114        6.4852871023
  N        17.3868987751       13.8630870579       17.5725958900
  C        17.1162163454       12.5456628624       17.3026639854
  N         5.0055161326       19.7351096943        6.7631965294
  C         5.2732435823       21.0529754844        6.4922312501
  N         5.0085233159        8.9156872367       17.5805623936
  C         5.2792752066       10.2330831848       17.3104041002
  N        19.5289913455        6.7551317279        5.1987979136
  C        20.8467340588        6.4883448582        5.4726281189
  N         8.7153813242        6.7607157895       16.0224763589
  C        10.0332700177        6.4888308530       16.2912083537
  N         2.8520551500        6.7617546299       17.5787502595
  C         1.5345861737        6.4902880935       17.3071297652
  N        13.6679756348        6.7565262213        6.7565717391
  C        12.3496482368        6.4874896632        6.4875121539
  N         2.8550555648       16.0233601134        5.2044080139
  C         1.5366831285       16.2917822889        5.4740957289
  N        13.6781049876       16.0179933567       16.0180441115
  C        12.3605601137       16.2893864651       16.2894094301
  N        19.5410198969       16.0177975882       17.5743224828
  C        20.8590090028       16.2897963502       17.3056226461
  N         8.7155044098       16.0225314475        6.7606719150
  C        10.0333541843       16.2912420117        6.4888016518
  N         6.5627217556       17.5832457210        3.0523414533
  C         6.2953275384       17.3121163828        1.7343570993
  N         6.5602188878        6.7619164675       13.8703962438
  C         6.2893245407        6.4919046646       12.5530441907
  N         6.5605020636        5.2070052223       19.7362915952
  C         6.2884109036        5.4762454813       21.0536881376
  N         6.5626699759       16.0232007552        8.9147086755
  C         6.2939308697       16.2936677142       10.2324245034
  N        15.8328628945       17.5730529215       19.7273318013
  C        16.1004547082       17.3015174934       21.0450565533
  N        15.8229280741        6.7555898501        8.9080192916
  C        16.0938677521        6.4859896740       10.2254416160
  N        15.8166942324        5.1983668317        3.0440119576
  C        16.0870659771        5.4691911356        1.7264918249
  N        15.8321769480       16.0160320567       13.8637599016
  C        16.1011859028       16.2863785007       12.5461857475
 Zn        14.5407768899       14.7232383924       14.7232931608
 Br        13.2227136060       13.4105625351       13.4105931187
 Zn        14.5231010017        3.9047485682        3.9048295138
 Br        13.2067316153        2.5914979093        2.5915920043
 Zn         3.7198030226       14.7307642858        3.9082407275
 Br         2.4019527621       13.4180698866        2.5951436014
 Zn         3.7196906940        3.9083240879       14.7306817966
 Br         2.4018384579        2.5952548152       13.4179778023
 Zn         7.8521203401        8.0546717237       14.7276776790
 Br         9.1687035981        9.3678245451       13.4139989977
 Zn         7.8521627450       18.8762980529        3.9131727698
 Br         9.1689369403       20.1904686270        2.6004350537
 Zn        18.6663676877        8.0479675768        3.9031825824
 Br        19.9821339272        9.3610185665        2.5888692861
 Zn        18.6764947487       18.8681609097       14.7225926496
 Br        19.9934423375       20.1800819661       13.4078371702
 Zn         7.8521964080       14.7276987315        8.0546386701
 Br         9.1687760028       13.4140060333        9.3678072771
 Zn         7.8520303960        3.9132432288       18.8762560135
 Br         9.1687564567        2.6004748896       20.1904278991
 Zn        18.6765424217       14.7225075253       18.8681839818
 Br        19.9934789484       13.4077308105       20.1801095925
 Zn        18.6663878288        3.9031594578        8.0480681767
 Br        19.9821475284        2.5888331021        9.3611253474
 Zn        14.5323103509        8.0506001424        8.0506474110
 Br        13.2170109886        9.3647116708        9.3647389574
 Zn        14.5443874510       18.8688396421       18.8689446082
 Br        13.2281488394       20.1824579255       20.1825704245
 Zn         3.7154530040        8.0560285275       18.8730959812
 Br         2.3991730349        9.3713572511       20.1851262345
 Zn         3.7156037548       18.8731617783        8.0559814429
 Br         2.3992981547       20.1852149078        9.3712777283
 Zn        14.5370898160       14.7235279721        8.0506391024
 Br        13.2200448339       13.4109289533        9.3645147458
 Zn        14.5365054321        3.9023738050       18.8664496078
 Br        13.2187180602        2.5883562362       20.1783074745
 Zn         3.7235808426       14.7304967954       18.8750890606
 Br         2.4068023454       13.4179310009       20.1893385263
 Zn         3.7089765079        3.9111953889        8.0556654276
 Br         2.3933773303        2.5988644097        9.3711573785
 Zn         7.8487117968        8.0549686104        8.0549249759
 Br         9.1661947427        9.3678654866        9.3678397414
 Zn         7.8600432346       18.8741258605       18.8740410978
 Br         9.1785717627       20.1867100408       20.1865953779
 Zn        18.6699884271        8.0479308151       18.8709189768
 Br        19.9865106201        9.3612158287       20.1844724656
 Zn        18.6700719406       18.8708576942        8.0480115668
 Br        19.9866045244       20.1843789131        9.3613154245
 Zn        14.5369967910        8.0506070729       14.7235551932
 Br        13.2199674818        9.3645058152       13.4109418376
 Zn        14.5367070681       18.8663853356        3.9024165034
 Br        13.2189285022       20.1782455340        2.5883899364
 Zn         3.7089335175        8.0557377763        3.9111615513
 Br         2.3933764214        9.3712600244        2.5988143411
 Zn         3.7235596493       18.8751148960       14.7303709270
 Br         2.4067976735       20.1893828186       13.4178001344
 Zn         7.8553248046       14.7281861911       14.7281377183
 Br         9.1712116684       13.4143363870       13.4143109834
 Zn         7.8454849350        3.9102378483        3.9101353864
 Br         9.1603009710        2.5961003855        2.5959973548
 Zn        18.6729634744       14.7223132481        3.9056021775
 Br        19.9892101514       13.4075165377        2.5932118766
 Zn        18.6728560590        3.9055130988       14.7223618363
 Br        19.9891047347        2.5930775033       13.4075962052
 Zn         5.7859012148        5.9880957662       16.8069039051
 Zn        16.6097830864       16.7923297932       16.7924507217
 Zn        16.6005673596        5.9733157482        5.9734325605
 Zn         5.7859887538       16.8070108258        5.9879985334
 Zn         5.7809497949        5.9879900461        5.9878958147
 Zn        16.6057275472       16.7926623266        5.9739592846
 Zn         5.7902886248       16.8069529957       16.8068511703
 Zn        16.6056354162        5.9738053951       16.7928151840
  N         3.6000450362        5.9835250199       16.8018591765
  N        14.4132939321        5.9777480535        5.9778172574
  N        18.7945518886       16.7951131356       16.7951718558
  N         7.9690159034       16.8024767732        5.9842124571
  N        18.7824320317        5.9749798215        5.9750683050
  N         7.9689275900        5.9842542793       16.8024196340
  N         3.6002004039       16.8019791005        5.9834405193
  N        14.4257993060       16.7956492562       16.7957304350
  N        16.5946188992        3.7911142418        5.9761696129
  N        16.6099345743       14.6101477093       16.7942473796
  N        16.6100294814       18.9805969561       16.7945668261
  N        16.5989289837        8.1605179567        5.9764328184
  N         5.7842908043       18.9890498975        5.9856704103
  N         5.7851242849        8.1686656039       16.8018021211
  N         5.7848948693        3.7987654210       16.8049721958
  N         5.7846496269       14.6181953044        5.9828205860
  N         5.7850452120       16.8050363318        3.7987156463
  N         5.7845438459        5.9828856101       14.6180932458
  N        16.6100436367       16.7944731972       18.9806494018
  N        16.5989354575        5.9763678128        8.1606041532
  N         5.7841547768        5.9857353193       18.9889966480
  N         5.7852405701       16.8018610313        8.1685696086
  N        16.5946176258        5.9760534125        3.7911696380
  N        16.6099373960       16.7941932022       14.6102319239
  N         5.7765596959        3.7991346368        5.9833284894
  N         5.7902590030       14.6182796689       16.8028052938
  N        16.6028761004       18.9809924385        5.9749224481
  N        16.6040734962        8.1606003975       16.7965155492
  N         5.7920658062       18.9887021751       16.8028843103
  N         5.7786836751        8.1686084739        5.9837647218
  N        16.6035992078        3.7906848451       16.7929328782
  N        16.6050387025       14.6101257888        5.9783145878
  N         3.6059243720       16.8040136622       16.8039386109
  N        14.4199789748       16.7941838189        5.9759437145
  N        18.7889654774       16.7963713340        5.9761623947
  N         7.9747560101       16.8014533370       16.8013787506
  N        18.7888084495        5.9760536794       16.7964274850
  N         7.9626605117        5.9831064144        5.9830465496
  N         3.5932736240        5.9863420500        5.9863003550
  N        14.4198901943        5.9759039110       16.7942405801
  N        16.6027340235        5.9748275972       18.9810478519
  N        16.6041860478       16.7964364853        8.1607086800
  N        16.6037584504       16.7928665455        3.7907335188
  N        16.6049304494        5.9782110724       14.6102360004
  N         5.7765752179        5.9834411466        3.7990793480
  N         5.7902626060       16.8028464607       14.6181963542
  N         5.7920706260       16.8030006563       18.9886508077
  N         5.7786782674        5.9838096751        8.1685252934
  C        11.1983568860       15.7411311996       15.7411307775
  H        11.1967544742       14.9656245014       14.9656247403
  C        11.1860006073        4.9232109242        4.9232130472
  H        11.1845529880        4.1477051906        4.1477074500
  C         0.3766662963       15.7408571506        4.9234713316
  H         0.3787520078       14.9652866660        4.1480506330
  C         0.3765896295        4.9235002418       15.7408030665
  H         0.3786416507        4.1480840226       14.9652269449
  C        11.1943511955        7.0368010278       15.7402637710
  H        11.1942904785        7.8122179070       14.9646680441
  C        11.1945145203       17.8554030992        4.9225691559
  H        11.1944782628       18.6310927379        4.1472594377
  C         0.3677711744        7.0404581481        4.9256771874
  H         0.3676665174        7.8161209689        4.1503331460
  C         0.3802082390       17.8566134130       15.7420197358
  H         0.3803183186       18.6321825274       14.9665880665
  C        11.1944864339       15.7402652351        7.0367982349
  H        11.1943669346       14.9646705401        7.8122163457
  C        11.1943359753        4.9225748105       17.8554051435
  H        11.1942885626        4.1472660186       18.6310948890
  C         0.3802703701       15.7420340522       17.8566007767
  H         0.3804141208       14.9666027480       18.6321710913
  C         0.3678283437        4.9256794672        7.0404617035
  H         0.3677635665        4.1503352154        7.8161265477
  C        11.1895536780        7.0380422480        7.0380456782
  H        11.1908141842        7.8135479808        7.8135514398
  C        11.2022290355       17.8557896757       17.8557875788
  H        11.2039519265       18.6312860159       18.6312830621
  C         0.3721791505        7.0381541152       17.8553531413
  H         0.3701374789        7.8137749018       18.6307399736
  C         0.3722755171       17.8553988572        7.0381311094
  H         0.3702612695       18.6307872140        7.8137515629
  C        15.5505336279       11.3860834131       15.7365487869
  H        14.7752970977       11.3866683941       14.9607217145
  C        15.5391864309        0.5649583456        4.9192815624
  H        14.7639855180        0.5637762720        4.1434391413
  C         4.7242524821       11.3939886675        4.9250022189
  H         3.9492195706       11.3948047988        4.1489984514
  C         4.7328340358        0.5727518446       15.7447057155
  H         3.9576153576        0.5718437821       14.9688700207
  C        15.5457855626       11.3862873308        7.0367756598
  H        14.7707777632       11.3869134483        7.8128444609
  C        15.5495556865        0.5650031352       17.8514769995
  H        14.7747644170        0.5641435156       18.6277318637
  C         4.7312232859       11.3938827382       17.8610656305
  H         3.9564807459       11.3945567020       18.6373480356
  C         4.7219930793        0.5730374099        7.0417872459
  H         3.9469275646        0.5720424321        7.8177716185
  C         6.8440604126       11.3924721662       15.7432727376
  H         7.6189370427       11.3918741335       14.9670825510
  C         6.8362271897        0.5748908049        4.9256459103
  H         7.6116341632        0.5758312270        4.1500220713
  C        17.6590049513       11.3848539820        4.9193763868
  H        18.4338295796       11.3841700680        4.1431953076
  C        17.6618804998        0.5666450422       15.7333768011
  H        18.4364488754        0.5675203487       14.9569033343
  C         6.8376206879       11.3923062474        7.0422641356
  H         7.6126858405       11.3915537343        7.8182442281
  C         6.8463229730        0.5744952647       17.8616582409
  H         7.6213673123        0.5753822000       18.6376478281
  C        17.6645780705       11.3848284537       17.8531800891
  H        18.4398927193       11.3842696882       18.6288934223
  C        17.6532012631        0.5672813122        7.0355673514
  H        18.4285560296        0.5684804205        7.8112511445
  C        15.5506032772       15.7364745317       11.3861233432
  H        14.7753631798       14.9606495763       11.3867129119
  C        15.5391050385        4.9191967813        0.5650583015
  H        14.7638992699        4.1433596992        0.5638878218
  C         4.7329349327       15.7447766019        0.5726604963
  H         3.9577076901       14.9689507002        0.5717969013
  C         4.7241912311        4.9250797237       11.3939281230
  H         3.9491504568        4.1490812959       11.3947124923
  C         6.8441353257       15.7433231827       11.3924548899
  H         7.6190028596       14.9671258701       11.3918462396
  C         6.8361804362        4.9257692721        0.5747767237
  H         7.6115935905        4.1501503269        0.5757148064
  C        17.6620040393       15.7333062254        0.5667287989
  H        18.4365665113       14.9568267861        0.5675569374
  C        17.6589312211        4.9192954973       11.3849262835
  H        18.4337536366        4.1431115208       11.3842685984
  C        15.5457058524        7.0367062161       11.3863256000
  H        14.7707015006        7.8127754781       11.3869574394
  C        15.5496913203       17.8514172497        0.5651036361
  H        14.7749018348       18.6276759101        0.5642555506
  C         4.7219313567        7.0418916120        0.5729562016
  H         3.9468666280        7.8178768660        0.5720010763
  C         4.7312993067       17.8611360105       11.3938180937
  H         3.9565575223       18.6374168799       11.3944619862
  C         6.8375654360        7.0423214249       11.3922807848
  H         7.6126356988        7.8182972338       11.3915185484
  C         6.8464424293       17.8617206216        0.5743834361
  H         7.6214884502       18.6377076970        0.5752694617
  C        17.6531420993        7.0354604891        0.5673520188
  H        18.4285061290        7.8111325719        0.5685146701
  C        17.6646460268       17.8530949505       11.3849180241
  H        18.4399644936       18.6288067971       11.3843770103
 Kr        20.7406145983       10.6489133901       10.6490552232
