     409
 i =     176, E =    -5136.7150577921
  N         2.9874718966        5.2012147596       16.0236917034
  C         1.6693604998        5.4697960336       16.2927991072
  N        13.8015844760        5.1938234519        5.1938237709
  C        12.4839647342        5.4642296865        5.4642297762
  N        19.6789879089       17.5727219639       16.0165513177
  C        20.9966568380       17.3053817071       16.2896503539
  N         8.8484500224       17.5774604763        5.2098918337
  C        10.1663457691       17.3057909097        5.4775290978
  N        19.6640219436        5.1938766246        6.7497400991
  C        20.9817987265        5.4664023650        6.4820637040
  N         8.8484630246        5.2098747309       17.5775066431
  C        10.1663343817        5.4775322054       17.3057839985
  N         2.9842645309       17.5788491398        6.7585287708
  C         1.6671017614       17.3080212932        6.4860463570
  N        13.8155402506       17.5723000574       17.5723309456
  C        12.4974689124       17.3032373280       17.3032513008
  N        15.9549777647        3.0385526905        5.1933934771
  C        16.2251701488        1.7211075107        5.4642984084
  N        15.9675038669       13.8629229760       16.0152858165
  C        16.2366089275       12.5451428030       16.2852043086
  N        15.9685661009       19.7240399515       17.5707949753
  C        16.2368274720       21.0419579454       17.2999671917
  N        15.9567082811        8.9033234292        6.7491070286
  C        16.2281500305       10.2211087433        6.4805016491
  N         6.6945540590       19.7323325644        5.2070736114
  C         6.4231694388       21.0498951366        5.4768144702
  N         6.6901028853        8.9141034849       16.0148454006
  C         6.4210545965       10.2317959273       16.2854134898
  N         6.6990094201        3.0536560499       17.5786775573
  C         6.4313722939        1.7353868626       17.3084510729
  N         6.6987572591       13.8681321054        6.7567292731
  C         6.4276775170       12.5504404222        6.4885239462
  N         5.1442368813       16.0216988504        3.0510354993
  C         5.4162245113       16.2922404397        1.7337152673
  N         5.1369326694        5.2069893747       13.8676709663
  C         5.4075661086        5.4772636028       12.5501083250
  N        17.5242533239       16.0148455107       19.7253121663
  C        17.2525383236       16.2843640275       21.0428605917
  N        17.5120265974        5.1930959675        8.9033893024
  C        17.2435936507        5.4646535404       10.2211279445
  N         5.1401580121        6.7644966249       19.7316164197
  C         5.4088767371        6.4939000884       21.0494337188
  N         5.1374999558       17.5744952025        8.9150613798
  C         5.4080259371       17.3038005991       10.2325107683
  N        17.5104921275        6.7499085925        3.0397411868
  C        17.2405938336        6.4802783930        1.7219238501
  N        17.5243458505       17.5708235530       13.8614164435
  C        17.2525493996       17.3007151525       12.5439860182
  N         5.1354689618        3.0486014919        6.7630379039
  C         5.4061696602        1.7308407152        6.4934068664
  N         5.1466798315       13.8714964342       17.5797586873
  C         5.4124693280       12.5536569187       17.3064268851
  N        17.5126053895       19.7231754448        6.7512510234
  C        17.2416082072       21.0406109908        6.4808802709
  N        17.5169878410        8.9044941105       17.5707062686
  C        17.2490547080       10.2225697910       17.3003942054
  N         5.1501948626       19.7341862099       16.0239648257
  C         5.4193569081       21.0521776778       16.2935885222
  N         5.1361288534        8.9113826535        5.2105495471
  C         5.4072836133       10.2290092314        5.4794036260
  N        17.5172699308        3.0422080628       16.0125919500
  C        17.2489808022        1.7243232974       16.2834162328
  N        17.5169635236       13.8602871082        5.1970844549
  C        17.2459486846       12.5425996917        5.4665809209
  N         2.9957357959       16.0261282400       17.5819069607
  C         1.6780632398       16.2941498292       17.3098158005
  N        13.8062578119       16.0147626785        6.7553043406
  C        12.4884369340       16.2872343394        6.4883923024
  N        19.6708147862       16.0167899273        5.1961558830
  C        20.9879668800       16.2891728404        5.4670383740
  N         8.8560931075       16.0207084245       16.0207643624
  C        10.1742404001       16.2898554644       16.2898593752
  N        19.6673058407        6.7514732998       17.5731443721
  C        20.9856237079        6.4825922588       17.3049237405
  N         8.8460041559        6.7515062231        6.7515080674
  C        10.1633795126        6.4805660855        6.4805654535
  N         2.9811515773        6.7587263532        5.2025631543
  C         1.6634276325        6.4862218647        5.4704749997
  N        13.8062561943        6.7552952257       16.0147905405
  C        12.4884292760        6.4883967289       16.2872308235
  N        15.9575928997        5.1947477323       19.7218016943
  C        16.2263493863        5.4648665117       21.0397880406
  N        15.9622078013       16.0139629293        8.9066762005
  C        16.2338288632       16.2843511347       10.2239567056
  N        15.9601082676       17.5676041616        3.0408276407
  C        16.2327560358       17.2986154106        1.7233744227
  N        15.9603607417        6.7530556922       13.8601791388
  C        16.2301402092        6.4822392163       12.5425636714
  N         6.6865305402        5.2028830860        3.0488071143
  C         6.4191973986        5.4751928668        1.7311347343
  N         6.6990996006       16.0207937962       13.8703768558
  C         6.4255903245       16.2882167303       12.5529325598
  N         6.7063365485       17.5800861024       19.7360467843
  C         6.4349934368       17.3094467415       21.0535605022
  N         6.6984671569        6.7604982011        8.9117715766
  C         6.4275326431        6.4905682572       10.2292422978
  N        19.6673151588       17.5731472896        6.7514907666
  C        20.9856137635       17.3049199748        6.4825901437
  N         8.8587516418       17.5769803995       17.5770370255
  C        10.1760353103       17.3056074002       17.3056120386
  N         2.9811478925        5.2025590677        6.7587288310
  C         1.6634277624        5.4704736947        6.4862225748
  N        13.8051531893        5.1968526563       17.5686120716
  C        12.4877085695        5.4712947747       17.3015831526
  N         2.9957190665       17.5819177109       16.0261161835
  C         1.6780671357       17.3098171205       16.2941484851
  N        13.8051574869       17.5685956658        5.1968512606
  C        12.4877158003       17.3015797082        5.4712982287
  N        19.6708225010        5.1961559318       16.0168057597
  C        20.9879728352        5.4670338165       16.2891709745
  N         8.8437228435        5.1956955427        5.1956974198
  C        10.1620524026        5.4648765453        5.4648760960
  N         6.7062865882       19.7360191527       17.5800888892
  C         6.4349912572       21.0535845370       17.3094383995
  N         6.6984736604        8.9117753135        6.7605116607
  C         6.4275305370       10.2292346484        6.4905668307
  N         6.6865302469        3.0488037446        5.2028847452
  C         6.4191937047        1.7311423880        5.4751930255
  N         6.6991409538       13.8703611401       16.0208118951
  C         6.4255996176       12.5529403418       16.2882072343
  N        15.9601116528        3.0408237293       17.5676167845
  C        16.2327567709        1.7233779106       17.2986169909
  N        15.9603562533       13.8601811122        6.7530593112
  C        16.2301426938       12.5425643868        6.4822377352
  N        15.9575917302       19.7217971141        5.1947455139
  C        16.2263504573       21.0397880983        5.4648672973
  N        15.9622103348        8.9066779146       16.0139808159
  C        16.2338240003       10.2239604542       16.2843503831
  N        17.5125997492        6.7512468537       19.7231759110
  C        17.2416090903        6.4808816704       21.0406111914
  N        17.5169987123       17.5707020252        8.9045004507
  C        17.2490547439       17.3003905656       10.2225632123
  N         5.1354823902        6.7630232172        3.0486137520
  C         5.4061702012        6.4934102420        1.7308307161
  N         5.1466541331       17.5797239357       13.8714982472
  C         5.4124765532       17.3064192018       12.5536521649
  N        17.5172671858       16.0125784863        3.0422202106
  C        17.2489782601       16.2834162156        1.7243169863
  N        17.5169605329        5.1970875348       13.8602811529
  C        17.2459499604        5.4665781610       12.5425993797
  N         5.1502017380       16.0239205443       19.7341983190
  C         5.4193501990       16.2935885147       21.0521561005
  N         5.1361283038        5.2105411827        8.9113898335
  C         5.4072814012        5.4794008921       10.2290148864
  N        17.5242767290       19.7253103194       16.0148501633
  C        17.2525369882       21.0428661556       16.2843635583
  N        17.5120196766        8.9033863649        5.1931036613
  C        17.2435936759       10.2211313797        5.4646545008
  N         5.1441877481        3.0510260286       16.0216613796
  C         5.4162317675        1.7337195026       16.2922587070
  N         5.1369651449       13.8676931873        5.2070512694
  C         5.4075672156       12.5500983780        5.4772542708
  N        17.5104972568        3.0397350631        6.7499136883
  C        17.2405946162        1.7219240828        6.4802785895
  N        17.5243230224       13.8614176816       17.5708312794
  C        17.2525506541       12.5439947176       17.3007151503
  N         5.1401712987       19.7316056177        6.7644635543
  C         5.4088722650       21.0494426249        6.4939095104
  N         5.1375088310        8.9150808628       17.5745546908
  C         5.4080203876       10.2324984467       17.3038015912
  N        19.6640190551        6.7497324480        5.1938846622
  C        20.9817995384        6.4820633514        5.4664030708
  N         8.8493656631        6.7667651660       16.0227048258
  C        10.1669640458        6.4940437632       16.2910044966
  N         2.9842544612        6.7585191224       17.5788801438
  C         1.6671108667        6.4860443304       17.3080141104
  N        13.8024810833        6.7501041782        6.7501039386
  C        12.4847623742        6.4799049143        6.4799046684
  N         2.9874916468       16.0237224099        5.2012871813
  C         1.6693510740       16.2927943830        5.4697875714
  N        13.8130617563       16.0164896065       16.0165212226
  C        12.4957589234       16.2875892676       16.2876038599
  N        19.6789749622       16.0165900261       17.5726827370
  C        20.9966590242       16.2896484643       17.3053832028
  N         8.8493547189       16.0227226020        6.7667171483
  C        10.1669761532       16.2909984605        6.4940531344
  N         6.6990113388       17.5786674363        3.0536548979
  C         6.4313885836       17.3084566321        1.7353855385
  N         6.6987930173        6.7567334427       13.8681178246
  C         6.4276672437        6.4885244829       12.5504497812
  N         6.6946010283        5.2070443473       19.7323486882
  C         6.4231602348        5.4768182059       21.0498868146
  N         6.6900157910       16.0148647966        8.9140749775
  C         6.4210563284       16.2854164628       10.2318100911
  N        15.9685345053       17.5707974936       19.7240472622
  C        16.2368284102       17.2999679210       21.0419521016
  N        15.9567096278        6.7491058717        8.9033233183
  C        16.2281490613        6.4805023189       10.2211062075
  N        15.9549766211        5.1933922365        3.0385559664
  C        16.2251702968        5.4642990432        1.7211076146
  N        15.9675376056       16.0152872215       13.8629272010
  C        16.2366092654       16.2852051799       12.5451344009
 Zn        14.6715220991       14.7226551773       14.7226533062
 Br        13.3543900438       13.4097310054       13.4097309831
 Zn        14.6622724698        3.8998750822        3.8998768726
 Br        13.3453537203        2.5866162402        2.5866162739
 Zn         3.8481996319       14.7279705143        3.9081615371
 Br         2.5328743772       13.4155927663        2.5932502898
 Zn         3.8482142694        3.9081720064       14.7279851259
 Br         2.5328853506        2.5932596765       13.4156058836
 Zn         7.9886838529        8.0552158521       14.7243461003
 Br         9.2929538509        9.3687659800       13.3987082312
 Zn         7.9914700048       18.8727120554        3.9157051691
 Br         9.3068069768       20.1854768989        2.6009368309
 Zn        18.8046548586        8.0438958226        3.8999953655
 Br        20.1198579140        9.3564167792        2.5845692193
 Zn        18.8186789622       18.8660319541       14.7214231534
 Br        20.1326859792       20.1790596185       13.4057211599
 Zn         7.9886972718       14.7243325748        8.0552306874
 Br         9.2929594361       13.3987007621        9.3687718782
 Zn         7.9914557462        3.9157129023       18.8727014352
 Br         9.3068005162        2.6009433821       20.1854716262
 Zn        18.8186772210       14.7214216475       18.8660320006
 Br        20.1326878444       13.4057156381       20.1790643125
 Zn        18.8046553720        3.8999935013        8.0438985330
 Br        20.1198570459        2.5845698951        9.3564172797
 Zn        14.6646490589        8.0443826956        8.0443849630
 Br        13.3654632023        9.3660306307        9.3660301072
 Zn        14.6750570814       18.8662222099       18.8662194520
 Br        13.3620945174       20.1810808317       20.1810810944
 Zn         3.8449119116        8.0554100465       18.8708872354
 Br         2.5312822905        9.3704005721       20.1852336357
 Zn         3.8449028513       18.8708977751        8.0554258636
 Br         2.5312798938       20.1852337505        9.3704045555
 Zn        14.6674728313       14.7206975779        8.0488959842
 Br        13.3484672743       13.4103126201        9.3624737252
 Zn        14.6654904777        3.9007595223       18.8608094987
 Br        13.3504682639        2.5863588791       20.1744295188
 Zn         3.8541484170       14.7306854235       18.8746609316
 Br         2.5395984371       13.4171797233       20.1894238024
 Zn         3.8436822290        3.9117344948        8.0549936101
 Br         2.5298322814        2.6001303538        9.3726483773
 Zn         7.9965846239        8.0490794376        8.0490785769
 Br         9.3630835440        9.3363730348        9.3363741013
 Zn         8.0004638345       18.8730274475       18.8730228107
 Br         9.3177067943       20.1858072128       20.1858052327
 Zn        18.8079035685        8.0454580974       18.8673029696
 Br        20.1227764563        9.3587777456       20.1819559129
 Zn        18.8079033553       18.8673042854        8.0454577345
 Br        20.1227726849       20.1819509460        9.3587738283
 Zn        14.6674727126        8.0488977133       14.7206885099
 Br        13.3484632908        9.3624777788       13.4103084796
 Zn        14.6654905735       18.8608107479        3.9007626763
 Br        13.3504706630       20.1744276664        2.5863606183
 Zn         3.8436810637        8.0549919615        3.9117417907
 Br         2.5298295238        9.3726491121        2.6001297415
 Zn         3.8541473006       18.8746660198       14.7306726265
 Br         2.5396020544       20.1894203394       13.4171827312
 Zn         7.9944216065       14.7265133824       14.7264992904
 Br         9.2963209628       13.4058666450       13.4058662219
 Zn         7.9754381327        3.9042430350        3.9042478761
 Br         9.2866197209        2.5880286741        2.5880282958
 Zn        18.8129791801       14.7208048243        3.9036785657
 Br        20.1262558437       13.4055267690        2.5894344291
 Zn        18.8129825077        3.9036720840       14.7207977771
 Br        20.1262578179        2.5894326834       13.4055260216
 Zn         5.9126855937        5.9882125344       16.8013521636
 Zn        16.7504417789       16.7893573567       16.7893593712
 Zn        16.7283793872        5.9667975553        5.9668004849
 Zn         5.9126831200       16.8013472207        5.9882120885
 Zn         5.9096819761        5.9835566608        5.9835646624
 Zn        16.7332843357       16.7866897962        5.9698570311
 Zn         5.9303358449       16.8066842166       16.8066954992
 Zn        16.7332836729        5.9698496817       16.7866905587
  N         3.7323725461        5.9809754886       16.8016231893
  N        14.5485724239        5.9717936493        5.9717934821
  N        18.9324303283       16.7930259455       16.7930673551
  N         8.1019903269       16.8009451334        5.9894065231
  N        18.9171314940        5.9704978242        5.9704904131
  N         8.1019366750        5.9893769627       16.8009292023
  N         3.7323255653       16.8016307066        5.9809289062
  N        14.5613086696       16.7939246399       16.7938319583
  N        16.7325823750        3.7857128332        5.9712324806
  N        16.7466623108       14.6087138341       16.7930184565
  N        16.7472980350       18.9777677511       16.7931588460
  N        16.7335150603        8.1563923401        5.9703028106
  N         5.9180146745       18.9853100767        5.9860711259
  N         5.9135238841        8.1680583206       16.7950058159
  N         5.9203591159        3.7992705106       16.8001768795
  N         5.9179457696       14.6147268121        5.9814875189
  N         5.9203165410       16.8001726489        3.7992387290
  N         5.9179302710        5.9815230751       14.6147751062
  N        16.7473331667       16.7931711797       18.9777554803
  N        16.7335100849        5.9703072192        8.1563869813
  N         5.9179968892        5.9860602543       18.9852599549
  N         5.9136136177       16.7950596705        8.1681181719
  N        16.7325858896        5.9712351683        3.7857121330
  N        16.7466244006       16.7930362763       14.6086972896
  N         5.9102067994        3.7956460303        5.9821300155
  N         5.9250899410       14.6178813490       16.8019342690
  N        16.7357250371       18.9755247592        5.9730148756
  N        16.7385738084        8.1586152842       16.7923392417
  N         5.9288177802       18.9886258614       16.8022275454
  N         5.9171937656        8.1649576191        5.9854598206
  N        16.7375106231        3.7881060159       16.7894835806
  N        16.7388661673       14.6067363882        5.9752695736
  N         3.7426488679       16.8050991183       16.8051061182
  N        14.5522462776       16.7901673927        5.9740467985
  N        18.9221197264       16.7938719221        5.9733641136
  N         8.1110102188       16.7997005218       16.7995674181
  N        18.9221335234        5.9733819388       16.7938600927
  N         8.0981259229        5.9743640942        5.9743630172
  N         3.7276980862        5.9819911234        5.9819905530
  N        14.5522377948        5.9740394477       16.7901364461
  N        16.7357281681        5.9730170854       18.9755289235
  N        16.7385567417       16.7923589168        8.1586063914
  N        16.7375251108       16.7895054395        3.7881034660
  N        16.7388644262        5.9752685190       14.6067347814
  N         5.9101968635        5.9821331059        3.7956349118
  N         5.9251511647       16.8019962885       14.6178697172
  N         5.9287730644       16.8022741065       18.9885849883
  N         5.9171923461        5.9854750108        8.1649663132
  C        11.3339118350       15.7390486436       15.7390885467
  H        11.3327074283       14.9635584310       14.9635620738
  C        11.3226432100        4.9149515052        4.9149512926
  H        11.3225156656        4.1394667467        4.1394666445
  C         0.5100957146       15.7416027885        4.9184848926
  H         0.5125440051       14.9662509978        4.1428258453
  C         0.5100918880        4.9184800140       15.7416113336
  H         0.5125495434        4.1428308324       14.9662595722
  C        11.3280624201        7.0416347441       15.7402024888
  H        11.3291796790        7.8177616580       14.9653149405
  C        11.3265232791       17.8528267540        4.9242322842
  H        11.3257928435       18.6273605827        4.1477251202
  C         0.5025631658        7.0338504189        4.9189234573
  H         0.5024575948        7.8095528865        4.1436086902
  C         0.5173827990       17.8574082826       15.7423887594
  H         0.5174409403       18.6329597306       14.9669187465
  C        11.3280584177       15.7401965339        7.0416278010
  H        11.3291871648       14.9653130420        7.8177616454
  C        11.3265312301        4.9242370944       17.8528332881
  H        11.3257903133        4.1477258460       18.6273595304
  C         0.5173890888       15.7423855206       17.8574111976
  H         0.5174446147       14.9669074707       18.6329704433
  C         0.5025615773        4.9189224407        7.0338504563
  H         0.5024564747        4.1436094314        7.8095506003
  C        11.3245453433        7.0297837424        7.0297830210
  H        11.3236634272        7.8053076230        7.8053065995
  C        11.3378314721       17.8540468543       17.8540857956
  H        11.3394221486       18.6295764415       18.6295782773
  C         0.5048415383        7.0339709156       17.8561340039
  H         0.5024120742        7.8097330762       18.6313992214
  C         0.5048520697       17.8561274557        7.0339752536
  H         0.5024103212       18.6313960528        7.8097290396
  C        15.6856404002       11.3853537899       15.7349609950
  H        14.9101736654       11.3866325994       14.9594158025
  C        15.6760050918        0.5600140903        4.9149248138
  H        14.9004594606        0.5594246252        4.1394486723
  C         4.8551266183       11.3891659263        4.9311749678
  H         4.0762573804       11.3882577861        4.1590095755
  C         4.8683659567        0.5719207440       15.7431525451
  H         4.0928260458        0.5702416287       14.9676509554
  C        15.6796121228       11.3818882450        7.0311405171
  H        14.9041833947       11.3816961719        7.8067308901
  C        15.6849920467        0.5620288540       17.8488154041
  H        14.9091809456        0.5610313159       18.6240400837
  C         4.8616250729       11.3935208759       17.8559296303
  H         4.0882161077       11.3940633456       18.6335404197
  C         4.8589731817        0.5696679014        7.0444924164
  H         4.0848635409        0.5687578861        7.8213828401
  C         6.9708195735       11.3919617278       15.7347985516
  H         7.7438415956       11.3913767330       14.9568022215
  C         6.9698459761        0.5710322209        4.9252570595
  H         7.7438275483        0.5721477307        4.1481812933
  C        17.7944162173       11.3817407460        4.9159401345
  H        18.5696422125       11.3816342970        4.1401390445
  C        17.8005306613        0.5641613912       15.7343406695
  H        18.5760165046        0.5652184253       14.9588159295
  C         6.9804072649       11.3901718991        7.0362159597
  H         7.7616037516       11.3916260935        7.8058796877
  C         6.9826741718        0.5755173692       17.8586502714
  H         7.7579308981        0.5772322040       18.6343922523
  C        17.8005119488       11.3823819701       17.8502227765
  H        18.5760289728       11.3810515228       18.6257357639
  C        17.7905225778        0.5616399623        7.0305355855
  H        18.5658677815        0.5623319426        7.8062170832
  C        15.6856494717       15.7349546626       11.3853546951
  H        14.9101742164       14.9594151702       11.3866299143
  C        15.6760041049        4.9149250573        0.5600148256
  H        14.9004593158        4.1394495364        0.5594268486
  C         4.8683748328       15.7431403054        0.5719231077
  H         4.0928171104       14.9676415801        0.5702371421
  C         4.8551317397        4.9311754390       11.3891623601
  H         4.0762618198        4.1590165520       11.3882620480
  C         6.9708048517       15.7347774746       11.3919572437
  H         7.7438461137       14.9568000500       11.3913823517
  C         6.9698503439        4.9252577562        0.5710422799
  H         7.7438249722        4.1481848166        0.5721467966
  C        17.8005265694       15.7343318004        0.5641678911
  H        18.5760196930       14.9588125383        0.5652208601
  C        17.7944150123        4.9159403266       11.3817380036
  H        18.5696409549        4.1401384431       11.3816329508
  C        15.6796126627        7.0311402976       11.3818876249
  H        14.9041811791        7.8067335224       11.3816958635
  C        15.6849841457       17.8488108898        0.5620310033
  H        14.9091832835       18.6240383480        0.5610310560
  C         4.8589736178        7.0444976887        0.5696788077
  H         4.0848631794        7.8213852429        0.5687559561
  C         4.8616058598       17.8559121738       11.3935091259
  H         4.0882219616       18.6335348030       11.3940642773
  C         6.9804080891        7.0362121265       11.3901666999
  H         7.7616023010        7.8058805203       11.3916296225
  C         6.9826835694       17.8586389384        0.5755275772
  H         7.7579307201       18.6343922912        0.5772335994
  C        17.7905224809        7.0305369508        0.5616392842
  H        18.5658687416        7.8062194459        0.5623339623
  C        17.8005173034       17.8502133653       11.3823866449
  H        18.5760244083       18.6257309240       11.3810510138
 Kr         6.2894220728       11.0472091352       11.0472086011
