     409
 i =     176, E =    -5136.7109072046
  N         2.9746218529        5.2336372503       15.9764669044
  C         1.6545162072        5.4929262973       16.2467880035
  N        13.8176940940        5.1201105069        5.1201974318
  C        12.4968661240        5.3846430121        5.3848277999
  N        19.6176612920       17.5460484578       15.9915707786
  C        20.9349964657       17.2887277846       16.2732609153
  N         8.8304398760       17.5840521580        5.2172533779
  C        10.1486915435       17.2892527279        5.4594716959
  N        19.6722705239        5.1834050930        6.7388714242
  C        20.9897108042        5.4652145869        6.4808498422
  N         8.8304890665        5.2171198174       17.5841605756
  C        10.1487436586        5.4593062665       17.2893304119
  N         2.9626552217       17.5426207863        6.7788303179
  C         1.6473204296       17.2679215685        6.5030471580
  N        13.7630652331       17.5971061599       17.5971348807
  C        12.4396535945       17.3392642311       17.3393014056
  N        15.9962321493        2.9967589052        5.1450835532
  C        16.2579871520        1.6807912842        5.4268826573
  N        15.8696308849       13.8557933766       16.0180043918
  C        16.1455013177       12.5361877370       16.2789259814
  N        15.9431667070       19.7230945803       17.5682329449
  C        16.2169311709       21.0381156311       17.2900850823
  N        15.9399506940        8.8578586899        6.6994911511
  C        16.2121012866       10.1776604951        6.4398734420
  N         6.6419721420       19.7083607620        5.2025127289
  C         6.3680333667       21.0261200300        5.4619895904
  N         6.6648223487        8.9457449171       16.0307878065
  C         6.3836659045       10.2624096378       16.2995906505
  N         6.6712903932        3.0830981045       17.5458840002
  C         6.3903020706        1.7663041249       17.2869577117
  N         6.7124009043       13.8363724761        6.8308567360
  C         6.4514686866       12.5190645564        6.5432993327
  N         5.1315887525       15.9742378816        3.0827271824
  C         5.3848099102       16.2613542222        1.7646473560
  N         5.1541090800        5.2754083843       13.8449277872
  C         5.4324816834        5.5309056753       12.5267280161
  N        17.4838009166       15.9980047301       19.7099326689
  C        17.2238750163       16.2658113562       21.0302078567
  N        17.5014693106        5.1497750737        8.8669933735
  C        17.2307985035        5.4269936504       10.1829495292
  N         5.0946113353        6.7654371745       19.7155984763
  C         5.3595215672        6.4842748163       21.0322137515
  N         5.1025155009       17.5808050190        8.9355222877
  C         5.3646604946       17.3122523863       10.2552947799
  N        17.5371464802        6.7150081638        3.0015549404
  C        17.2634438463        6.4525611111        1.6827511384
  N        17.4500950210       17.5497636012       13.8518056366
  C        17.1769959298       17.2787026767       12.5353057228
  N         5.1071230192        3.0341060319        6.7393870094
  C         5.3649390776        1.7135180104        6.4711720218
  N         5.0846977839       13.8939682707       17.6012680710
  C         5.3548543473       12.5776741169       17.3228385385
  N        17.4999690048       19.6834757295        6.7528945200
  C        17.2446452549       21.0014929726        6.4709752298
  N        17.4749783561        8.8984496564       17.5268965514
  C        17.1888432649       10.2145534042       17.2676682572
  N         5.0809817823       19.7634556533       16.0415653482
  C         5.3605702589       21.0826586956       16.2956702795
  N         5.1727634272        8.8934966372        5.1959517627
  C         5.4410330977       10.2068492675        5.4881313842
  N        17.5067938769        3.0289061617       15.9819318207
  C        17.2346140961        1.7120832567       16.2568220117
  N        17.5094393591       13.8231122310        5.1798751825
  C        17.2367604168       12.5042869348        5.4423880271
  N         2.9319944955       16.0417529034       17.5971825925
  C         1.6147673070       16.2981348635       17.3137464549
  N        13.7860536191       15.9452456558        6.6920765791
  C        12.4695418338       16.2255953661        6.4265928167
  N        19.6561680267       15.9783381072        5.1997601566
  C        20.9725687489       16.2478090301        5.4776407861
  N         8.7849883784       16.0771829972       16.0772316939
  C        10.1041642122       16.3419179726       16.3419739421
  N        19.6472755614        6.7574398537       17.5324188743
  C        20.9663737138        6.4926747375       17.2641845800
  N         8.8617627207        6.6732489050        6.6733542021
  C        10.1759594118        6.3979747158        6.3982230954
  N         2.9879737313        6.7705995394        5.2147868035
  C         1.6703853361        6.4962104873        5.4804807345
  N        13.7860909759        6.6919251210       15.9452723961
  C        12.4695875044        6.4263998763       16.2256173937
  N        15.9592708487        5.1831030415       19.6855709336
  C        16.2392520031        5.4453133174       21.0019119426
  N        15.8987576360       15.9915603239        8.8920144958
  C        16.1588982536       16.2663476923       10.2121137233
  N        15.9556054443       17.5421265194        3.0364947823
  C        16.2235770057       17.2770313170        1.7182039364
  N        15.9555054538        6.7369396561       13.8168336930
  C        16.2211777282        6.4579776322       12.4998065006
  N         6.6440744991        5.1644795382        3.0184098929
  C         6.3692244492        5.4441580006        1.7045512494
  N         6.6438056374       16.0492258005       13.9036795038
  C         6.3723856413       16.3092987045       12.5845110647
  N         6.6234719714       17.6108710207       19.7699504582
  C         6.3672522814       17.3204401220       21.0861761551
  N         6.7460247695        6.7347264374        8.8733839461
  C         6.4665454278        6.4945238642       10.1947220472
  N        19.6471992250       17.5323533288        6.7574710800
  C        20.9662960972       17.2641457909        6.4926919425
  N         8.7970540807       17.6331439904       17.6331350977
  C        10.1144871963       17.3577112079       17.3577324796
  N         2.9880250053        5.2148864474        6.7706551750
  C         1.6704072863        5.4804925313        6.4962799233
  N        13.7904572195        5.1757974972       17.5398771220
  C        12.4713709356        5.4381914011       17.2675735384
  N         2.9319872163       17.5971909796       16.0417335660
  C         1.6147634756       17.3137502188       16.2981262987
  N        13.7903987328       17.5397786575        5.1758710603
  C        12.4713167653       17.2675035672        5.4383282239
  N        19.6562401867        5.1997417811       15.9783973224
  C        20.9726416551        5.4776380218       16.2478364797
  N         8.8499619765        5.1183759276        5.1183647781
  C        10.1717507780        5.3824932758        5.3826362203
  N         6.6234416268       19.7699644490       17.6108538084
  C         6.3672219554       21.0861895402       17.3204189703
  N         6.7456789871        8.8734715815        6.7341398278
  C         6.4661561314       10.1948031961        6.4940500017
  N         6.6441158277        3.0184395220        5.1645626852
  C         6.3692423982        1.7045906744        5.4442524134
  N         6.6437826178       13.9036828151       16.0491791950
  C         6.3723463565       12.5845243230       16.3092735853
  N        15.9556444137        3.0364584741       17.5422004866
  C        16.2235985471        1.7181693257       17.2770871887
  N        15.9554246746       13.8167469153        6.7369764622
  C        16.2210841066       12.4997148143        6.4580211353
  N        15.9592099811       19.6854968063        5.1831460574
  C        16.2391969411       21.0018396410        5.4453524150
  N        15.8987495283        8.8919623907       15.9916521917
  C        16.1588992730       10.2120632752       16.2664212262
  N        17.5000156030        6.7528686481       19.6835540842
  C        17.2446888884        6.4709476028       21.0015725629
  N        17.4749536733       17.5268392903        8.8984914187
  C        17.1888244340       17.2676130603       10.2145966977
  N         5.1070292913        6.7392472035        3.0340303337
  C         5.3648963952        6.4710456313        1.7134618985
  N         5.0847003086       17.6012928238       13.8939291978
  C         5.3548798072       17.3228521658       12.5776429622
  N        17.5067434299       15.9818448343        3.0289404534
  C        17.2345876981       16.2567604427        1.7121155647
  N        17.5094928325        5.1798104312       13.8232181848
  C        17.2368314203        5.4423220724       12.5043911358
  N         5.0809904196       16.0416049877       19.7634388999
  C         5.3605805932       16.2957095339       21.0826412038
  N         5.1731690003        5.1964123990        8.8933851364
  C         5.4414597850        5.4885402239       10.2067518445
  N        17.4837943874       19.7099036919       15.9980284914
  C        17.2238756162       21.0301773446       16.2658433551
  N        17.5014032059        8.8668887338        5.1499131942
  C        17.2307084815       10.1828460445        5.4270938961
  N         5.1316614833        3.0827669661       15.9741364471
  C         5.3848265790        1.7646735206       16.2612783934
  N         5.1537802406       13.8450314160        5.2751691400
  C         5.4321049922       12.5268173965        5.5306112325
  N        17.5371395124        3.0014598960        6.7150477939
  C        17.2634184140        1.6826648333        6.4525936384
  N        17.4501189568       13.8517657045       17.5497990329
  C        17.1770195502       12.5352623657       17.2787477421
  N         5.0946011661       19.7156266552        6.7655046149
  C         5.3595244096       21.0322491186        6.4843559350
  N         5.1025213494        8.9355487687       17.5808833694
  C         5.3646385468       10.2553238497       17.3122927246
  N        19.6722520831        6.7387650198        5.1834879650
  C        20.9896923132        6.4807564235        5.4652776070
  N         8.8313391357        6.7407350745       15.9977768213
  C        10.1487309767        6.4510849418       16.2503818334
  N         2.9627364189        6.7788401816       17.5425906418
  C         1.6474002519        6.5030429012       17.2679016809
  N        13.8084966040        6.6759547434        6.6762615547
  C        12.4939871422        6.4001229669        6.4004555429
  N         2.9745299568       15.9765814514        5.2335526373
  C         1.6544332191       16.2468505865        5.4928931962
  N        13.7367910434       16.0407071470       16.0407770585
  C        12.4244360033       16.3236888997       16.3237547973
  N        19.6176675087       15.9915566487       17.5460652136
  C        20.9350016390       16.2732524008       17.2887380858
  N         8.8312893199       15.9977140580        6.7409148446
  C        10.1486814598       16.2503431917        6.4512908956
  N         6.6712934918       17.5459082501        3.0830979283
  C         6.3903246630       17.2869922168        1.7662967302
  N         6.7126915904        6.8311401460       13.8363473604
  C         6.4518101139        6.5436191088       12.5190285154
  N         6.6419825398        5.2024427485       19.7083333313
  C         6.3680389953        5.4619127948       21.0260926216
  N         6.6648106393       16.0307009301        8.9457322128
  C         6.3836872891       16.2995507879       10.2623940908
  N        15.9431702314       17.5682086083       19.7231269188
  C        16.2169306245       17.2900528456       21.0381473033
  N        15.9400831640        6.6994148981        8.8579607520
  C        16.2122282498        6.4398095191       10.1777598700
  N        15.9962585321        5.1450281806        2.9968255126
  C        16.2580247252        5.4268379331        1.6808631173
  N        15.8696187348       16.0179517751       13.8558460896
  C        16.1454881076       16.2788699362       12.5362379289
 Zn        14.5737089716       14.7361537362       14.7362380340
 Br        13.2783695429       13.4130013724       13.4130756540
 Zn        14.7079882129        3.8393565199        3.8393823929
 Br        13.4017796557        2.5201891335        2.5202253362
 Zn         3.8547086335       14.6781039056        3.9607008786
 Br         2.5553032265       13.3440944820        2.6519042286
 Zn         3.8549468903        3.9609023203       14.6779230502
 Br         2.5555357233        2.6521439258       13.3438949654
 Zn         7.9939327296        8.1021394306       14.7603191893
 Br         9.4441450295        9.4883389559       13.6819761762
 Zn         7.9542402577       18.8616458769        3.9270182058
 Br         9.2622075949       20.1695931144        2.6003268229
 Zn        18.8158744583        8.0135497848        3.8741869260
 Br        20.1283332635        9.3378604716        2.5669551175
 Zn        18.7603259722       18.8340370182       14.7010181569
 Br        20.0757062545       20.1429007243       13.3809195767
 Zn         7.9937181173       14.7600796396        8.1020382104
 Br         9.4432566661       13.6803342569        9.4878412416
 Zn         7.9542386363        3.9268569603       18.8617051745
 Br         9.2621551464        2.6001686203       20.1696914627
 Zn        18.7603437568       14.7010011133       18.8340596103
 Br        20.0757311562       13.3809109433       20.1429252716
 Zn        18.8159000109        3.8740068451        8.0135932607
 Br        20.1284073344        2.5668119458        9.3378842916
 Zn        14.6500873777        7.9776185270        7.9778397342
 Br        13.3543445204        9.3011503060        9.3014193127
 Zn        14.6579477118       18.8783030032       18.8783256659
 Br        13.3652767101       20.2038848960       20.2039147213
 Zn         3.8028984327        8.0611358978       18.8597166620
 Br         2.4801972244        9.3581277130       20.1828656604
 Zn         3.8028796582       18.8596677491        8.0611494548
 Br         2.4802298008       20.1828426606        9.3581759286
 Zn        14.6448267213       14.6720334587        8.0107013983
 Br        13.3530615009       13.3378602452        9.3277795255
 Zn        14.6600086161        3.8941920446       18.8323023104
 Br        13.3470998881        2.5838027935       20.1529014153
 Zn         3.7900599328       14.7544596973       18.8930843213
 Br         2.4798647122       13.4348686936       20.2084459683
 Zn         3.8494805624        3.9126667696        8.0545372395
 Br         2.5336938161        2.6117939462        9.3790832256
 Zn         8.0562749180        7.9810639531        7.9802179002
 Br         9.4809479493        9.2388655301        9.2357185335
 Zn         7.9095847161       18.9201597150       18.9201316336
 Br         9.2194001947       20.2366832444       20.2366777415
 Zn        18.7776500024        8.0541052617       18.8185493530
 Br        20.0898302021        9.3712219119       20.1325214919
 Zn        18.7776131997       18.8184986513        8.0541307783
 Br        20.0898048785       20.1324757331        9.3712295415
 Zn        14.6448558700        8.0106334713       14.6721084775
 Br        13.3531576742        9.3276968367       13.3378666343
 Zn        14.6599633109       18.8322181630        3.8942342148
 Br        13.3470384147       20.1528109671        2.5838585352
 Zn         3.8492582340        8.0544249958        3.9123083977
 Br         2.5333111305        9.3787687027        2.6114111388
 Zn         3.7900500503       18.8930889455       14.7544265616
 Br         2.4798440646       20.2084823366       13.4348768949
 Zn         7.9456243739       14.7781755513       14.7781611178
 Br         9.3470224428       13.5105718476       13.5102059839
 Zn         7.9375000538        3.8458213990        3.8458293649
 Br         9.2058170624        2.5098722037        2.5099188929
 Zn        18.8029262267       14.6946567556        3.8938424771
 Br        20.1268731861       13.3919179304        2.5759694071
 Zn        18.8030138381        3.8938081104       14.6947832127
 Br        20.1269305783        2.5759339600       13.3920082430
 Zn         5.9007320121        6.0129322411       16.7794265833
 Zn        16.6768614909       16.7808100390       16.7808379642
 Zn        16.7425121868        5.9302219111        5.9303626871
 Zn         5.9006694055       16.7793995154        6.0129106844
 Zn         5.9191064485        5.9483176501        5.9482305456
 Zn        16.7192149825       16.7549821586        5.9603437884
 Zn         5.8567777440       16.8351184496       16.8350985048
 Zn        16.7192471224        5.9603091035       16.7550841215
  N         3.7155820218        6.0106690859       16.7607640335
  N        14.5595738989        5.9006974392        5.9008535379
  N        18.8702582214       16.7627240582       16.7627456651
  N         8.0845188231       16.8025042952        5.9926534149
  N        18.9255662290        5.9544894097        5.9546061281
  N         8.0845727230        5.9925209783       16.8026057310
  N         3.7155013408       16.7608406021        6.0105975589
  N        14.4963314024       16.8124739146       16.8125211636
  N        16.7690624194        3.7458831101        5.9252231137
  N        16.6596476156       14.6001071629       16.7863713689
  N        16.7095527979       18.9695681250       16.7855386321
  N        16.7208178627        8.1156562051        5.9205004220
  N         5.8715422053       18.9648763513        5.9899822197
  N         5.8888093966        8.1944383792       16.8063387827
  N         5.9085444661        3.8296881621       16.7535734870
  N         5.9282474602       14.5874794567        6.0595063261
  N         5.9084836786       16.7536334062        3.8296707951
  N         5.9285264315        6.0597320862       14.5874235808
  N        16.7095619060       16.7855165467       18.9695990769
  N        16.7209003564        5.9203821729        8.1157591457
  N         5.8715649365        5.9899086833       18.9648505562
  N         5.8887834339       16.8062319324        8.1944154853
  N        16.7690744609        5.9251732421        3.7459657007
  N        16.6596299900       16.7863292344       14.6001519932
  N         5.8807457757        3.7726165331        5.9490649626
  N         5.8649604652       14.6459204895       16.8305338814
  N        16.7230666868       18.9376439129        5.9730134823
  N        16.6946352991        8.1485233207       16.7548099240
  N         5.8461254732       19.0202348515       16.8353304910
  N         5.9622222072        8.1366498394        5.9516178190
  N        16.7320523896        3.7792800173       16.7597823249
  N        16.7333873730       14.5667017808        5.9625044600
  N         3.6785718677       16.8263869821       16.8263739492
  N        14.5349437384       16.7415913522        5.9357770045
  N        18.9050564041       16.7549345894        5.9750938057
  N         8.0444628870       16.8572626160       16.8572705351
  N        18.9051290110        5.9750644273       16.7550140031
  N         8.1088259179        5.8995258134        5.8994836867
  N         3.7347088965        5.9941542330        5.9941246229
  N        14.5349912844        5.9356890697       16.7416718049
  N        16.7231231641        5.9729796666       18.9377202206
  N        16.6946246937       16.7547293026        8.1485703641
  N        16.7319988022       16.7596884923        3.7793141999
  N        16.7334460102        5.9624559234       14.5667979961
  N         5.8806636667        5.9489443422        3.7725634788
  N         5.8649671794       16.8305708373       14.6458994925
  N         5.8461407343       16.8353563571       19.0202174215
  N         5.9625579604        5.9521564188        8.1365686027
  C        11.2562855711       15.7838272585       15.7839078792
  H        11.2412501029       15.0084391910       15.0085338228
  C        11.3351598586        4.8336267068        4.8337353369
  H        11.3381788020        4.0581459539        4.0581326014
  C         0.4969482950       15.6959758052        4.9372445694
  H         0.5014142290       14.9182452072        4.1640025039
  C         0.4970174042        4.9372718398       15.6959504714
  H         0.5014584593        4.1640425943       14.9182069291
  C        11.3092282267        6.9688881787       15.6706452554
  H        11.3072875900        7.7265175781       14.8780629024
  C        11.3103677206       17.8399331532        4.9112234322
  H        11.3110428353       18.6356324136        4.1564479166
  C         0.5098250258        7.0392113885        4.9239257522
  H         0.5090615720        7.8142053932        4.1478613568
  C         0.4547864721       17.8510734886       15.7354060262
  H         0.4545586244       18.6265035405       14.9597740679
  C        11.3091873036       15.6706499698        6.9691337852
  H        11.3072587125       14.8780820217        7.7267820250
  C        11.3104268522        4.9110917443       17.8400266239
  H        11.3111196019        4.1563574323       18.6357652750
  C         0.4547980502       15.7354066141       17.8510782599
  H         0.4545807973       14.9597750274       18.6265090069
  C         0.5098689163        4.9239277556        7.0393224453
  H         0.5091297841        4.1479018038        7.8143545635
  C        11.3345019551        6.9480755750        6.9484735544
  H        11.3305699458        7.7234018981        7.7238415911
  C        11.2855659441       17.8979409944       17.8979559165
  H        11.2992275932       18.6733872889       18.6733799225
  C         0.4835290816        7.0454664337       17.8177024834
  H         0.4786955862        7.8178358604       18.5963702396
  C         0.4834389445       17.8176796732        7.0454938360
  H         0.4785935921       18.5963291467        7.8178806505
  C        15.5935284754       11.3737661672       15.7327613965
  H        14.8078936669       11.3737492624       14.9675929859
  C        15.7049908672        0.5212821369        4.8798376832
  H        14.9374444971        0.5211123071        4.0964094211
  C         4.8834523737       11.3743624252        4.9640785831
  H         4.1035972835       11.3873045353        4.1928038202
  C         4.8281834585        0.6012823067       15.7237006041
  H         4.0594790796        0.5970083925       14.9415687856
  C        15.6659758431       11.3365109568        6.9976925261
  H        14.8897936311       11.3339286044        7.7726343092
  C        15.6746804275        0.5626898926       17.8375496802
  H        14.9045959027        0.5696994626       18.6184724339
  C         4.8082853210       11.4117826852       17.8652594963
  H         4.0327690841       11.4049529681       18.6408256268
  C         4.8159888309        0.5571883398        7.0315358702
  H         4.0475089345        0.5631130081        7.8139553017
  C         6.9273006691       11.4285062065       15.7552030000
  H         7.7098194100       11.4348429458       14.9870843423
  C         6.9119684950        0.5407889596        4.8964537193
  H         7.6798471315        0.5343058539        4.1132664169
  C        17.7839635172       11.3458449110        4.8859346590
  H        18.5608559669       11.3485220159        4.1119386809
  C        17.7755409593        0.5466131904       15.7081011597
  H        18.5459322921        0.5398512546       14.9275765865
  C         7.0118140534       11.3491522201        7.0643224111
  H         7.7954498767       11.3310316622        7.8306923240
  C         6.9232658700        0.6086180585       17.8585023669
  H         7.6916179450        0.6131844647       18.6412396620
  C        17.7399959412       11.3751126536       17.8149783592
  H        18.5273318762       11.3753394527       18.5785667271
  C        17.7984349473        0.5222389163        7.0173255922
  H        18.5652618415        0.5221814134        7.8014032857
  C        15.5935281534       15.7326906984       11.3738169094
  H        14.8079008208       14.9675149251       11.3737997827
  C        15.7050443559        4.8797898145        0.5213493542
  H        14.9375065464        4.0963533197        0.5211690592
  C         4.8281683762       15.7237663413        0.6012594929
  H         4.0594487539       14.9416491160        0.5969937764
  C         4.8838796374        4.9644130402       11.3742203168
  H         4.1040341733        4.1931216088       11.3871188452
  C         6.9273432015       15.7552033058       11.4285027747
  H         7.7098502228       14.9870708441       11.4348655349
  C         6.9119770875        4.8963764404        0.5407539326
  H         7.6798692810        4.1132023007        0.5342731248
  C        17.7755287557       15.7080566481        0.5466446307
  H        18.5459209313       14.9275324905        0.5398800008
  C        17.7840299941        4.8858386822       11.3459583830
  H        18.5608997863        4.1118219993       11.3486524323
  C        15.6661022319        6.9976592109       11.3365928533
  H        14.8899378441        7.7726203042       11.3339875025
  C        15.6746737133       17.8375081408        0.5627250182
  H        14.9045904612       18.6184322828        0.5697352131
  C         4.8159551937        7.0314287501        0.5571386925
  H         4.0474603102        7.8138355172        0.5630740773
  C         4.8083092495       17.8652460918       11.4117428281
  H         4.0327856529       18.6408036010       11.4048885791
  C         7.0121510592        7.0647302674       11.3491200483
  H         7.7957136035        7.8311684208       11.3311020080
  C         6.9233109217       17.8585121106        0.6086050547
  H         7.6916825014       18.6412283955        0.6131710119
  C        17.7984614405        7.0173019634        0.5223277071
  H        18.5652770480        7.8013902440        0.5222759777
  C        17.7399675079       17.8149359162       11.3751533812
  H        18.5272952416       18.5785330946       11.3753793634
 Kr         7.0959645838       11.3146064772       11.3165313455
