     409
 i =     176, E =    -5136.7083550347
  N         2.9516164747        5.2235284226       15.9926312868
  C         1.6319558650        5.4853655578       16.2601944523
  N        13.7778786488        5.1341965206        5.1342586259
  C        12.4579857761        5.4015194470        5.4016041342
  N        19.5970440230       17.5530177878       15.9981587716
  C        20.9142526677       17.2940374307       16.2785229911
  N         8.8083509553       17.5894150010        5.2070085728
  C        10.1258343818       17.2988467469        5.4565883411
  N        19.6351163976        5.1848913103        6.7403697785
  C        20.9523845368        5.4632066408        6.4788750643
  N         8.8083183611        5.2069683670       17.5894499645
  C        10.1258057105        5.4565269756       17.2988789968
  N         2.9406105856       17.5551524603        6.7718838635
  C         1.6254108997       17.2795425150        6.4972214071
  N        13.7366903213       17.5932819053       17.5933172481
  C        12.4153537245       17.3306708227       17.3306985176
  N        15.9541294331        3.0052539785        5.1530520211
  C        16.2217461057        1.6893896637        5.4314350570
  N        15.8635427111       13.8555017294       16.0205828118
  C        16.1385272608       12.5359676371       16.2835404543
  N        15.9128246761       19.7221094650       17.5697145305
  C        16.1881221297       21.0373382287       17.2940375959
  N        15.9130834728        8.8709216871        6.7109144974
  C        16.1864932049       10.1903332775        6.4482959073
  N         6.6276724076       19.7148883820        5.1964681508
  C         6.3514875107       21.0318247059        5.4578781459
  N         6.6332270343        8.9353871550       16.0356770302
  C         6.3545820339       10.2531643647       16.3044493067
  N         6.6533613248        3.0719377210       17.5580032640
  C         6.3728957590        1.7556436072       17.2965173168
  N         6.6724659069       13.8425307357        6.8013899895
  C         6.4087981023       12.5248156357        6.5172576298
  N         5.1071959657       15.9937829601        3.0738180682
  C         5.3632382084       16.2753375680        1.7558079903
  N         5.1166727537        5.2456816621       13.8515014949
  C         5.3911990285        5.5033037758       12.5328655556
  N        17.4582197118       16.0040305273       19.7107495526
  C        17.1978147485       16.2724706888       21.0303816343
  N        17.4717863518        5.1585172642        8.8757738791
  C        17.2036108236        5.4338705835       10.1925563738
  N         5.0770845412        6.7566765554       19.7183477822
  C         5.3404904864        6.4777884160       21.0350046948
  N         5.0771899733       17.5910365706        8.9282256237
  C         5.3391935094       17.3207525257       10.2473937983
  N        17.4983305287        6.7196189825        3.0116355529
  C        17.2294906838        6.4547451924        1.6927481758
  N        17.4380890192       17.5570423607       13.8532860840
  C        17.1669871572       17.2864699125       12.5364532591
  N         5.0759377170        3.0340792543        6.7376132319
  C         5.3392710167        1.7149435037        6.4686961103
  N         5.0565091046       13.8864112364       17.6064890795
  C         5.3275745706       12.5699154610       17.3295739330
  N        17.4826675801       19.6942427235        6.7498176366
  C        17.2215798415       21.0116919258        6.4698997539
  N        17.4651217736        8.8999176316       17.5422942524
  C        17.1800162223       10.2157443819       17.2799395920
  N         5.0625271887       19.7572057566       16.0419807520
  C         5.3417136476       21.0752247057       16.3001547852
  N         5.1198300121        8.8980384633        5.1825801432
  C         5.3924320437       10.2120388882        5.4692065855
  N        17.4843464095        3.0279352442       15.9928182382
  C        17.2104492286        1.7113497759       16.2658435795
  N        17.4865115530       13.8321017369        5.1772715874
  C        17.2123428236       12.5142343267        5.4434054448
  N         2.9113027482       16.0424891609       17.5980349278
  C         1.5940430972       16.3005385287       17.3161760270
  N        13.7641935136       15.9694024809        6.6986247969
  C        12.4466683106       16.2460681606        6.4338483252
  N        19.6345508187       15.9878096510        5.1952571665
  C        20.9509815114       16.2576289509        5.4720930870
  N         8.7643669893       16.0615692514       16.0615812218
  C        10.0838940325       16.3268766140       16.3268989090
  N        19.6270165306        6.7531131713       17.5416518574
  C        20.9453873524        6.4876105043       17.2734337294
  N         8.8207168990        6.6904703049        6.6904623448
  C        10.1364133558        6.4167633480        6.4168329187
  N         2.9500731092        6.7617061882        5.2059081009
  C         1.6326080510        6.4891739239        5.4735196814
  N        13.7641738538        6.6985509702       15.9694445125
  C        12.4466487532        6.4337645557       16.2460991841
  N        15.9385522582        5.1826970842       19.6933235647
  C        16.2139024230        5.4463764973       21.0102366061
  N        15.8913015977       16.0057341199        8.8914109738
  C        16.1518455043       16.2768369782       10.2119583082
  N        15.9319083682       17.5512392470        3.0354333813
  C        16.1980042050       17.2845474721        1.7171792555
  N        15.9332842340        6.7351499905       13.8320543586
  C        16.1973459632        6.4599612979       12.5135159720
  N         6.6188680362        5.1691228743        3.0245467433
  C         6.3472294737        5.4454965552        1.7097257855
  N         6.6099003324       16.0497207262       13.8957399604
  C         6.3417694233       16.3126746875       12.5760323732
  N         6.6111502913       17.6047413484       19.7594058143
  C         6.3524530129       17.3208674539       21.0761765720
  N         6.6870390677        6.7259596189        8.8783816901
  C         6.4146849488        6.4785789062       10.2003519117
  N        19.6270209341       17.5416036085        6.7531541043
  C        20.9453929636       17.2734151483        6.4876310243
  N         8.7750395538       17.6170740226       17.6170360806
  C        10.0918431782       17.3426400664       17.3426345917
  N         2.9501002080        5.2058969382        6.7617677287
  C         1.6326218801        5.4734759194        6.4892465642
  N        13.7665506767        5.1735693215       17.5537229865
  C        12.4479213876        5.4387735821       17.2817691144
  N         2.9112924444       17.5980488693       16.0424558007
  C         1.5940357275       17.3161853353       16.3005202790
  N        13.7665771158       17.5536515455        5.1736136193
  C        12.4479479991       17.2817197284        5.4388372996
  N        19.6345391206        5.1952261968       15.9878503377
  C        20.9509711167        5.4720816462       16.2576395063
  N         8.8123494462        5.1349055886        5.1348748499
  C        10.1331261104        5.4009989471        5.4010409023
  N         6.6111162942       19.7594483595       17.6046785468
  C         6.3524018931       21.0762145316       17.3208108964
  N         6.6868932359        8.8784369834        6.7257036446
  C         6.4145209445       10.2004050959        6.4783628152
  N         6.6189037675        3.0245711110        5.1691150363
  C         6.3472681881        1.7097491833        5.4454929907
  N         6.6098727851       13.8957570482       16.0496893288
  C         6.3417227639       12.5760554846       16.3126493992
  N        15.9318731875        3.0353993350       17.5513044532
  C        16.1979694461        1.7171461767       17.2846038104
  N        15.9332860132       13.8319940340        6.7351847282
  C        16.1973390687       12.5134535149        6.4600007023
  N        15.9385610375       19.6932611079        5.1827341510
  C        16.2139013716       21.0101755525        5.4464195031
  N        15.8912760672        8.8913669599       16.0058043724
  C        16.1518295986       10.2119134376       16.2769031830
  N        17.4826618279        6.7497787770       19.6943003164
  C        17.2215810369        6.4698570618       21.0117515208
  N        17.4651340788       17.5422379126        8.8999662343
  C        17.1800241994       17.2798811114       10.2157925168
  N         5.0758544454        6.7375793069        3.0340536520
  C         5.3392094482        6.4686767945        1.7149209202
  N         5.0565180587       17.6065014117       13.8863692121
  C         5.3276092432       17.3295884573       12.5698784950
  N        17.4843740045       15.9927487939        3.0279620667
  C        17.2104808314       16.2657847690        1.7113770519
  N        17.4864938247        5.1772207950       13.8321728003
  C        17.2123379944        5.4433541354       12.5143048894
  N         5.0625535015       16.0420473957       19.7571790103
  C         5.3417561571       16.3002181859       21.0751935172
  N         5.1200208736        5.1827754425        8.8979759823
  C         5.3926217116        5.4693945516       10.2119742507
  N        17.4581984168       19.7107250842       16.0040636072
  C        17.1977892955       21.0303548534       16.2725102041
  N        17.4717736923        8.8757010874        5.1585966044
  C        17.2035953550       10.1924849763        5.4339368481
  N         5.1071659248        3.0738568837       15.9937076765
  C         5.3631903340        1.7558421613       16.2752692748
  N         5.1165695656       13.8515750510        5.2455645778
  C         5.3910597654       12.5329302824        5.5031625157
  N        17.4983234467        3.0115724144        6.7196707743
  C        17.2294825371        1.6926866287        6.4547945181
  N        17.4381132099       13.8532387968       17.5570913665
  C        17.1670010336       12.5364050591       17.2865268352
  N         5.0771393977       19.7183663043        6.7566864220
  C         5.3405426447       21.0350245332        6.4777949779
  N         5.0771498086        8.9282609557       17.5910599863
  C         5.3391441088       10.2474286361       17.3207579935
  N        19.6351091052        6.7402857042        5.1849549441
  C        20.9523778680        6.4787969820        5.4632676030
  N         8.8066421406        6.7378967873       16.0101940516
  C        10.1250535486        6.4540607322       16.2652888787
  N         2.9406042164        6.7719086119       17.5551030300
  C         1.6254047698        6.4972313411       17.2795075216
  N        13.7730435944        6.6900090306        6.6901453399
  C        12.4566631558        6.4172325832        6.4173656339
  N         2.9516213153       15.9927208503        5.2234681901
  C         1.6319625807       16.2602501466        5.4853365036
  N        13.7204207396       16.0377928667       16.0378552848
  C        12.4053004616       16.3149519034       16.3149986442
  N        19.5970571441       15.9981400444       17.5530358875
  C        20.9142608801       16.2785164310       17.2940451878
  N         8.8066574834       16.0101710487        6.7379515324
  C        10.1250726221       16.2652685492        6.4541350532
  N         6.6534299928       17.5580418513        3.0719095893
  C         6.3729641561       17.2965659649        1.7556108478
  N         6.6725562967        6.8015217402       13.8425068759
  C         6.4089269883        6.5174104302       12.5247791727
  N         6.6276188784        5.1964625550       19.7148691406
  C         6.3514412524        5.4578786116       21.0318045839
  N         6.6332724970       16.0356554815        8.9353647715
  C         6.3546362075       16.3044485947       10.2531403510
  N        15.9128398985       17.5696780333       19.7221454521
  C        16.1881461108       17.2939968549       21.0373717311
  N        15.9131262640        6.7108626031        8.8709860477
  C        16.1865255450        6.4482461150       10.1903982702
  N        15.9541417902        5.1529960024        3.0053131532
  C        16.2217569756        5.4313826733        1.6894498766
  N        15.8635297855       16.0205182172       13.8555503537
  C        16.1385209208       16.2834754879       12.5360152879
 Zn        14.5740981686       14.7449291743       14.7450239881
 Br        13.2647705683       13.4329131922       13.4329730635
 Zn        14.6617089679        3.8490109939        3.8490519093
 Br        13.3538192807        2.5315107313        2.5315552731
 Zn         3.8267098019       14.7018146078        3.9441544854
 Br         2.5213306846       13.3718389216        2.6342277534
 Zn         3.8267568695        3.9442424386       14.7017013376
 Br         2.5213780341        2.6343549988       13.3716930927
 Zn         7.9452529835        8.0699633403       14.7637781965
 Br         9.3268996443        9.4561593217       13.6124403159
 Zn         7.9398364661       18.8706707086        3.9131991226
 Br         9.2466105022       20.1815752311        2.5900524642
 Zn        18.7765321667        8.0180108645        3.8798153896
 Br        20.0920535496        9.3374376792        2.5698472535
 Zn        18.7375477240       18.8422051908       14.7074874534
 Br        20.0551226651       20.1529944323       13.3909354231
 Zn         7.9452101831       14.7636887113        8.0699082345
 Br         9.3266260450       13.6118165249        9.4558935831
 Zn         7.9397661237        3.9131635487       18.8706758511
 Br         9.2464968917        2.5899918355       20.1815945675
 Zn        18.7375874030       14.7074662356       18.8422320098
 Br        20.0551547689       13.3909069190       20.1530201350
 Zn        18.7765339982        3.8797280459        8.0180667592
 Br        20.0920788686        2.5697716490        9.3374837571
 Zn        14.6219279238        7.9868392150        7.9869429985
 Br        13.3010229105        9.2933999350        9.2935166735
 Zn        14.6217536278       18.8766624002       18.8766965046
 Br        13.3281741049       20.2010426144       20.2010938195
 Zn         3.7844921016        8.0555426499       18.8709746601
 Br         2.4578352949        9.3505735968       20.1918531783
 Zn         3.7845261576       18.8709782128        8.0555337447
 Br         2.4579026170       20.1918759665        9.3505793157
 Zn        14.6303747136       14.7043567821        8.0064953980
 Br        13.3382232332       13.3725482768        9.3166596357
 Zn        14.6398144871        3.8925638769       18.8425112116
 Br        13.3273705517        2.5810116149       20.1630147038
 Zn         3.7687013527       14.7542506434       18.8951706471
 Br         2.4537355458       13.4420669889       20.2135337769
 Zn         3.8048168005        3.9020572943        8.0491959775
 Br         2.4881158093        2.5948831153        9.3664318537
 Zn         7.9792381161        7.9868281432        7.9864907150
 Br         9.3094764489        9.2891482410        9.2881418538
 Zn         7.9011432708       18.9044045247       18.9043060340
 Br         9.2128714303       20.2204422450       20.2203851287
 Zn        18.7671530817        8.0505101076       18.8298281599
 Br        20.0763414982        9.3657604477       20.1478608528
 Zn        18.7671567244       18.8297863163        8.0505512667
 Br        20.0763572786       20.1478102967        9.3657974968
 Zn        14.6303564459        8.0064523720       14.7044217267
 Br        13.3382383315        9.3166076862       13.3725861880
 Zn        14.6398445930       18.8424264726        3.8925885705
 Br        13.3274041689       20.1629425695        2.5810456741
 Zn         3.8046202301        8.0491313446        3.9019823071
 Br         2.4879043056        9.3662899470        2.5947503114
 Zn         3.7686799221       18.8951673339       14.7541906237
 Br         2.4537190923       20.2135493884       13.4420220638
 Zn         7.8991802230       14.7725172947       14.7725096825
 Br         9.2361996825       13.4739017982       13.4737709095
 Zn         7.9089614823        3.8559425284        3.8559044999
 Br         9.1960630294        2.5286138003        2.5285978253
 Zn        18.7778502269       14.7033278841        3.8911393390
 Br        20.1011192116       13.3997700655        2.5734362683
 Zn        18.7778355781        3.8911017350       14.7033946206
 Br        20.1011019890        2.5733882144       13.3998428197
 Zn         5.8801975379        6.0039806251       16.7884146751
 Zn        16.6631139019       16.7839584696       16.7839968540
 Zn        16.7095923820        5.9400963794        5.9401588642
 Zn         5.8802202581       16.7884268936        6.0039576107
 Zn         5.8819158327        5.9503917172        5.9503453343
 Zn        16.7065814986       16.7665986447        5.9584780349
 Zn         5.8376533593       16.8296031094       16.8295791196
 Zn        16.7065618581        5.9584436461       16.7666485677
  N         3.6929962912        6.0009730666       16.7758703061
  N        14.5220196981        5.9136353934        5.9137268521
  N        18.8499389155       16.7701931328       16.7702170490
  N         8.0613143031       16.8094295865        5.9823630219
  N        18.8884782621        5.9578157704        5.9578919358
  N         8.0612911192        5.9823274004       16.8094605111
  N         3.6930044145       16.7759477573        6.0009192373
  N        14.4752136027       16.8114698713       16.8115244053
  N        16.7261367906        3.7552705653        5.9333150860
  N        16.6502267030       14.6007553286       16.7908208029
  N        16.6816214139       18.9695851031       16.7883854567
  N        16.6916310676        8.1266058378        5.9315553945
  N         5.8562679218       18.9696804151        5.9818020810
  N         5.8596854176        8.1857548047       16.8142172693
  N         5.8864335356        3.8198773995       16.7709968350
  N         5.8915741748       14.5939385888        6.0290878387
  N         5.8864771340       16.7710544513        3.8198446079
  N         5.8916590524        6.0291971496       14.5938909752
  N        16.6816371174       16.7883521227       18.9696161560
  N        16.6916579759        5.9314861449        8.1266738576
  N         5.8562106799        5.9817912088       18.9696610569
  N         5.8597211915       16.8141838963        8.1857255373
  N        16.7261462391        5.9332594813        3.7553320425
  N        16.6502057895       16.7907670853       14.6008022938
  N         5.8502993600        3.7757560624        5.9514079518
  N         5.8329918817       14.6381547037       16.8317661144
  N        16.7066487808       18.9470455032        5.9702120703
  N        16.6851842333        8.1488391387       16.7711656254
  N         5.8315086430       19.0117729573       16.8297149852
  N         5.9038231187        8.1414642709        5.9443956014
  N        16.7099402141        3.7783130372       16.7707089082
  N        16.7118250458       14.5785522754        5.9585139547
  N         3.6578388280       16.8263669621       16.8263386569
  N        14.5125227230       16.7609841787        5.9371389354
  N        18.8843403879       16.7644062273        5.9711982476
  N         8.0230909791       16.8413856830       16.8413608353
  N        18.8843310082        5.9711514343       16.7644655033
  N         8.0698609889        5.9152433466        5.9151834469
  N         3.6968115318        5.9842814037        5.9843042358
  N        14.5125000513        5.9370874764       16.7610516470
  N        16.7066369227        5.9701775286       18.9471051586
  N        16.6852058372       16.7711020035        8.1488852860
  N        16.7099700900       16.7706378196        3.7783440045
  N        16.7118102785        5.9584715940       14.5786178233
  N         5.8502328049        5.9513891957        3.7757308730
  N         5.8329986083       16.8317866112       14.6381245503
  N         5.8315293300       16.8297823747       19.0117394609
  N         5.9039884978        5.9446204271        8.1414100978
  C        11.2391745045       15.7715588081       15.7716060865
  H        11.2297086854       14.9961069269       14.9961654824
  C        11.2957320915        4.8516586455        4.8517068484
  H        11.2974050461        4.0761267778        4.0761353506
  C         0.4751919838       15.7076543937        4.9300819622
  H         0.4803566839       14.9305892410        4.1561341443
  C         0.4751775138        4.9300984418       15.7076253057
  H         0.4803303369        4.1561591681       14.9305522158
  C        11.2860718155        6.9791788671       15.6924355131
  H        11.2852495126        7.7409740415       14.9036594462
  C        11.2869843499       17.8490395406        4.9072776539
  H        11.2869989460       18.6401876425        4.1477558940
  C         0.4724599009        7.0346162734        4.9191348241
  H         0.4720489923        7.8095712359        4.1430128582
  C         0.4341375611       17.8549844407       15.7392798506
  H         0.4339849896       18.6305485296       14.9637871702
  C        11.2860859373       15.6924223315        6.9792737183
  H        11.2852580416       14.9036514933        7.7410758357
  C        11.2869520698        4.9072210081       17.8490867456
  H        11.2869610217        4.1477135950       18.6402488730
  C         0.4341550093       15.7392875057       17.8549858622
  H         0.4340183171       14.9637968997       18.6305521583
  C         0.4724763078        4.9190955012        7.0347035773
  H         0.4720705824        4.1429915489        7.8096755987
  C        11.2963703770        6.9661791446        6.9663152265
  H        11.2956823841        7.7415792462        7.7417325309
  C        11.2592153700       17.8862253545       17.8862262572
  H        11.2679710668       18.6617416174       18.6617285423
  C         0.4617053058        7.0410638932       17.8275453683
  H         0.4562506466        7.8142241741       18.6053848719
  C         0.4617064294       17.8275466754        7.0410762384
  H         0.4562444555       18.6053762388        7.8142458360
  C        15.5879774745       11.3723435992       15.7385720011
  H        14.8038145905       11.3701036079       14.9719083690
  C        15.6730309681        0.5281332671        4.8838204937
  H        14.9036820916        0.5253402989        4.1021670354
  C         4.8399939011       11.3797819137        4.9394870263
  H         4.0611886137       11.3925886829        4.1672584145
  C         4.8054025103        0.5947739833       15.7347058262
  H         4.0338177018        0.5931222157       14.9552755899
  C        15.6423114723       11.3515883043        7.0034527852
  H        14.8667114534       11.3519717505        7.7788061778
  C        15.6461131978        0.5616459306       17.8421651860
  H        14.8746302579        0.5684042781       18.6216739213
  C         4.7837242585       11.4040706736       17.8747025826
  H         4.0099316228       11.3970128320       18.6519715207
  C         4.7919043714        0.5569025722        7.0257118226
  H         4.0209216178        0.5592305552        7.8057534754
  C         6.8955445145       11.4196143844       15.7576239359
  H         7.6724314834       11.4266169217       14.9837864594
  C         6.8948831070        0.5487385770        4.8967468688
  H         7.6653619155        0.5458521591        4.1161345725
  C        17.7576269675       11.3536602264        4.8893157578
  H        18.5336785255       11.3534253664        4.1143441527
  C        17.7517246358        0.5464591456       15.7168710793
  H        18.5238723754        0.5398153180       14.9380061401
  C         6.9633731688       11.3551620084        7.0448598306
  H         7.7424321032       11.3383494701        7.8162782693
  C         6.9095660248        0.5967771886       17.8615820102
  H         7.6807528275        0.5989916515       18.6414125685
  C        17.7294577441       11.3775202172       17.8262650731
  H        18.5147914080       11.3797528293       18.5919015414
  C        17.7715272962        0.5339403946        7.0163455512
  H        18.5405806384        0.5365825542        7.7982445350
  C        15.5879868917       15.7385031954       11.3723851987
  H        14.8038282472       14.9718358290       11.3701370951
  C        15.6730389865        4.8837712202        0.5281939751
  H        14.9036911351        4.1021164133        0.5254016888
  C         4.8054435394       15.7347764454        0.5947437374
  H         4.0338498445       14.9553544035        0.5930998387
  C         4.8401671087        4.9396459232       11.3796966970
  H         4.0613658928        4.1674119316       11.3924683326
  C         6.8956048261       15.7576445303       11.4195976493
  H         7.6724926498       14.9838069068       11.4266170732
  C         6.8948517298        4.8967577384        0.5487156496
  H         7.6653403613        4.1161551412        0.5458247436
  C        17.7517540586       15.7168224728        0.5464803231
  H        18.5239019396       14.9379576080        0.5398267133
  C        17.7576257823        4.8892499142       11.3537386035
  H        18.5336677995        4.1142690349       11.3535164097
  C        15.6423387234        7.0034167423       11.3516438490
  H        14.8667478791        7.7787796628       11.3520131426
  C        15.6461447148       17.8421186124        0.5616854754
  H        14.8746636548       18.6216288886        0.5684546450
  C         4.7918420541        7.0256949901        0.5568817225
  H         4.0208505324        7.8057278819        0.5592137395
  C         4.7837656008       17.8747056053       11.4040267228
  H         4.0099669968       18.6519683005       11.3969534785
  C         6.9635101612        7.0450531192       11.3551383480
  H         7.7425480174        7.8164918919       11.3383664824
  C         6.9096349956       17.8616235889        0.5967398325
  H         7.6808324928       18.6414433338        0.5989488434
  C        17.7715306603        7.0162998197        0.5340006810
  H        18.5405811758        7.7982016849        0.5366422826
  C        17.7294515936       17.8262106808       11.3775724209
  H        18.5147811433       18.5918514976       11.3798120995
 Kr        11.2454776929       11.3697484537       11.3698983964
