     409
 i =     176, E =    -5136.6996175726
  N         2.9249374790        5.2018382795       15.9720172170
  C         1.6080165051        5.4778932807       16.2415539471
  N        13.7204960186        5.0680800375        5.0682130274
  C        12.4004707182        5.3383583827        5.3392085633
  N        19.6757199908       17.6046213047       16.0483898343
  C        20.9923853786       17.3168153341       16.3011182065
  N         8.7881923952       17.5459813650        5.1747447862
  C        10.1083457538       17.2669803778        5.4257593247
  N        19.5920629154        5.1973413691        6.7540190806
  C        20.9097250667        5.4707610156        6.4875077209
  N         8.7877415514        5.1743309171       17.5466906388
  C        10.1079257928        5.4249001614       17.2675228000
  N         2.9315420310       17.5264437926        6.7593472416
  C         1.6131605507       17.2587844773        6.4919428195
  N        13.8078149627       17.6547070881       17.6547291783
  C        12.4914714701       17.3763825598       17.3765494450
  N        15.9408044103        2.9953791458        5.1367153009
  C        16.2128226148        1.6835850373        5.4232849800
  N        15.9819702886       13.9150551860       16.0660790430
  C        16.2516462652       12.5935098157       16.3201013735
  N        15.9884677028       19.7768752266       17.6176001355
  C        16.2349470156       21.0923822056       17.3187162314
  N        15.8387576352        8.8425850006        6.6969960479
  C        16.1138052152       10.1673782696        6.4702591274
  N         6.6094697451       19.6834721599        5.1885355786
  C         6.3273386535       20.9991248602        5.4494181978
  N         6.6926603774        8.8928553053       15.9935259177
  C         6.4357061046       10.2140073083       16.2681364523
  N         6.6206997244        3.0422084952       17.5469273259
  C         6.3575474105        1.7233072552       17.2819760702
  N         6.6280155112       13.8150874394        6.7418684670
  C         6.3630135535       12.4975965607        6.4630560864
  N         5.0748219741       15.9819068097        3.0301931919
  C         5.3494420752       16.2588842118        1.7141479279
  N         5.0738340664        5.1844163044       13.8208613126
  C         5.3465448892        5.4478303262       12.5023469120
  N        17.5297466158       16.0473687098       19.7722399854
  C        17.2405628823       16.2932075237       21.0902862226
  N        17.4108734943        5.1664360146        8.8797255373
  C        17.1384327969        5.4690652317       10.1905270342
  N         5.0730203075        6.7626546498       19.6810090418
  C         5.3249218295        6.4782785268       20.9993169600
  N         5.1080519266       17.5208280005        8.9033718286
  C         5.4014026379       17.2647956714       10.2187328574
  N        17.4740433010        6.7148031339        3.0162283131
  C        17.2147063214        6.4520007677        1.6955962208
  N        17.5340883108       17.6237181885       13.8967334560
  C        17.2637272873       17.3381138901       12.5816459647
  N         5.0322062907        2.9995871300        6.7160489853
  C         5.3039570005        1.6801335503        6.4551599734
  N         5.1524295343       13.8556139608       17.5524485735
  C         5.4226765306       12.5392729503       17.2793659772
  N        17.4823462728       19.7024259191        6.7564897868
  C        17.2177184672       21.0172238541        6.4721705906
  N        17.5016260772        8.9381814377       17.5914764710
  C        17.2465299147       10.2584016852       17.3200140048
  N         5.1145123276       19.7115530419       16.0021200947
  C         5.3688367062       21.0324405501       16.2705684584
  N         5.0850066714        8.8655168137        5.1517189722
  C         5.3548790557       10.1808340644        5.4313013921
  N        17.4472824273        3.0893324214       15.9563108409
  C        17.2017377363        1.7706667225       16.2463268272
  N        17.4190096862       13.8317287306        5.2883046913
  C        17.1414537341       12.5111727760        5.5327431369
  N         2.9878298670       15.9916264253       17.5461072282
  C         1.6709733255       16.2731552922       17.2886163877
  N        13.7548317703       15.9843745462        6.7085643511
  C        12.4352782360       16.2355921591        6.4225167011
  N        19.6058263885       15.9670308615        5.2358657167
  C        20.9261468920       16.2390898187        5.4926547442
  N         8.8730179471       16.0522570781       16.0525008488
  C        10.1850283865       16.3374374841       16.3377360387
  N        19.6174856156        6.7737600295       17.5404058255
  C        20.9324588342        6.4991315784       17.2639169809
  N         8.7770251516        6.6548867376        6.6561720941
  C        10.0883224095        6.3707724936        6.3724041952
  N         2.9078586397        6.7450479228        5.1900864472
  C         1.5904025335        6.4824141395        5.4674899397
  N        13.7545419379        6.7071841954       15.9849706973
  C        12.4349654268        6.4210413274       16.2359406040
  N        15.9385606707        5.1896660507       19.6910793676
  C        16.2116991170        5.4474094233       21.0082970263
  N        15.9524618452       16.0289416938        8.9505842025
  C        16.2338718547       16.2999120843       10.2687009242
  N        15.9099583847       17.5292005697        3.0845123187
  C        16.1975578666       17.2731254692        1.7696329577
  N        15.8574841709        6.8442165420       13.8107061053
  C        16.1188133439        6.5459831747       12.4944563537
  N         6.5646953368        5.1387028196        2.9918528221
  C         6.3044903741        5.4249383163        1.6770458098
  N         6.7368202253       16.0248580517       13.8594895514
  C         6.4571276089       16.2823330260       12.5393545127
  N         6.6524486064       17.5749457407       19.7295064411
  C         6.3739670284       17.2965591775       21.0436951529
  N         6.6510188265        6.6961587135        8.8541028576
  C         6.3757122127        6.4415107591       10.1748799317
  N        19.6176459258       17.5402121968        6.7736679854
  C        20.9326548347       17.2638105979        6.4990781596
  N         8.8410346493       17.6081194895       17.6081778653
  C        10.1657245054       17.3529794920       17.3531361720
  N         2.9079502123        5.1896087189        6.7457498533
  C         1.5904441517        5.4668921138        6.4832237975
  N        13.7478911626        5.1998524196       17.5860891476
  C        12.4311183731        5.4397624394       17.2848962388
  N         2.9878451632       17.5460693960       15.9916455258
  C         1.6709839864       17.2885987654       16.2731654487
  N        13.7483152201       17.5850701509        5.2007150271
  C        12.4315209126       17.2842192805        5.4408754321
  N        19.6055382954        5.2363761464       15.9668613561
  C        20.9259105063        5.4929042095       16.2390046295
  N         8.7506575506        5.0998579998        5.1001137184
  C        10.0744339761        5.3558715498        5.3567242829
  N         6.6524230465       19.7293878266       17.5750093607
  C         6.3739086363       21.0435755385       17.2966745742
  N         6.6514270648        8.8537389843        6.6962075774
  C         6.3760984216       10.1745131932        6.4415489970
  N         6.5648576538        2.9915650558        5.1388865707
  C         6.3046976492        1.6767264613        5.4250441379
  N         6.7367636738       13.8593399681       16.0249839599
  C         6.4570519806       12.5392138411       16.2824838300
  N        15.9099472982        3.0845737290       17.5293846121
  C        16.1976045977        1.7697521762       17.2731234863
  N        15.8590991290       13.8100716875        6.8425966705
  C        16.1207325711       12.4939153593        6.5441494113
  N        15.9385577690       19.6909331891        5.1897935639
  C        16.2116715387       21.0081884535        5.4476105408
  N        15.9531563255        8.9506090071       16.0298023765
  C        16.2345529269       10.2687722927       16.3003809733
  N        17.4824607123        6.7562386259       19.7025756254
  C        17.2178592478        6.4718439954       21.0173422691
  N        17.5011382351       17.5905651797        8.9378709990
  C        17.2459696168       17.3194483003       10.2581381654
  N         5.0320591933        6.7158682813        3.0000240353
  C         5.3037730534        6.4550776664        1.6805325608
  N         5.1525196259       17.5523664626       13.8556955915
  C         5.4227875528       17.2792540777       12.5393655464
  N        17.4476043916       15.9565318195        3.0890133728
  C        17.2018633553       16.2465274654        1.7704382787
  N        17.4173774375        5.2897859960       13.8318512717
  C        17.1395092191        5.5344772668       12.5113881843
  N         5.1145036845       16.0020846436       19.7116507693
  C         5.3688736343       16.2704751160       21.0325441926
  N         5.0849801126        5.1512744463        8.8659298408
  C         5.3546990662        5.4310548810       10.1812288784
  N        17.5297061961       19.7723649187       16.0472005196
  C        17.2405362642       21.0904284613       16.2930740889
  N        17.4133567777        8.8795189678        5.1642689393
  C        17.1407813072       10.1903020952        5.4669298082
  N         5.0746019883        3.0300815121       15.9822917479
  C         5.3492922831        1.7140303819       16.2591441900
  N         5.0739801007       13.8204705552        5.1846053451
  C         5.3467533849       12.5019574031        5.4479762432
  N        17.4733103131        3.0162729554        6.7159759468
  C        17.2143255325        1.6955964608        6.4527878836
  N        17.5340899007       13.8970537665       17.6237349960
  C        17.2640196242       12.5819043040       17.3382376277
  N         5.0733035012       19.6806265432        6.7626566499
  C         5.3251885555       20.9989301666        6.4782787933
  N         5.1078874841        8.9032999805       17.5210759891
  C         5.4012739569       10.2186432121       17.2649876001
  N        19.5921799033        6.7525780566        5.1978493005
  C        20.9097661132        6.4862576623        5.4715230154
  N         8.7971537059        6.6755925811       15.9386073077
  C        10.1128321779        6.4023358859       16.2160869457
  N         2.9313206884        6.7593094645       17.5266892589
  C         1.6129461575        6.4919486932       17.2589566976
  N        13.7229969733        6.6213106361        6.6226671657
  C        12.4060206239        6.3535549323        6.3552297568
  N         2.9251565330       15.9718199743        5.2018228452
  C         1.6082405060       16.2414441668        5.4778257783
  N        13.8277896934       16.0998923037       16.1002946545
  C        12.5063838534       16.3605389905       16.3609203667
  N        19.6757178074       16.0484458274       17.6045988048
  C        20.9923800474       16.3011499270       17.3167955859
  N         8.7973973136       15.9383603799        6.6765221357
  C        10.1131330800       16.2158783272        6.4035887453
  N         6.6209905119       17.5464998715        3.0423659237
  C         6.3577325674       17.2816874837        1.7234482460
  N         6.6277190996        6.7418183334       13.8154690623
  C         6.3626939629        6.4630259091       12.4979704433
  N         6.6090496603        5.1884167089       19.6838378029
  C         6.3269977670        5.4493565799       20.9994735933
  N         6.6926554512       15.9930899425        8.8930338665
  C         6.4357448181       16.2678510957       10.2141565381
  N        15.9884002652       17.6176371733       19.7767752278
  C        16.2348819814       17.3187564737       21.0922808871
  N        15.8362990002        6.6993770795        8.8430433784
  C        16.1115425221        6.4725160728       10.1677836694
  N        15.9409939410        5.1361224439        2.9953611635
  C        16.2129133268        5.4227947711        1.6835985134
  N        15.9817653917       16.0662711347       13.9151241923
  C        16.2511845654       16.3201223776       12.5934853503
 Zn        14.6876031601       14.8145682687       14.8145805511
 Br        13.2824389819       13.5562295147       13.5533796309
 Zn        14.6526459198        3.8023175043        3.8025298612
 Br        13.3933633024        2.4631813704        2.4634856210
 Zn         3.7841025744       14.6892790956        3.8948034253
 Br         2.4564238566       13.3913618842        2.5760143997
 Zn         3.7839530331        3.8947023344       14.6897485930
 Br         2.4561795079        2.5760268307       13.3917378741
 Zn         7.9472521460        8.0067132006       14.6756638620
 Br         9.2352025304        9.3168326288       13.3331217934
 Zn         7.9113969681       18.8378718742        3.8986436467
 Br         9.2250965468       20.1607310561        2.5907873149
 Zn        18.7321927510        8.0307837312        3.8911166246
 Br        20.0496853305        9.3545789258        2.5908044919
 Zn        18.8260136170       18.9122081171       14.7610431699
 Br        20.1378455815       20.2265328520       13.4430365807
 Zn         7.9473407750       14.6750351070        8.0070976056
 Br         9.2352329124       13.3326545157        9.3176092551
 Zn         7.9109294861        3.8984051218       18.8385051190
 Br         9.2246722784        2.5904832668       20.1612635169
 Zn        18.8260387426       14.7611888412       18.9122339722
 Br        20.1377853877       13.4428850468       20.2263163976
 Zn        18.7302443204        3.8919344365        8.0329553127
 Br        20.0473578824        2.5920776366        9.3573992976
 Zn        14.5439786782        7.9157364091        7.9128256061
 Br        13.1126181893        9.1697297331        9.1459575423
 Zn        14.7043640007       18.9336188545       18.9335680959
 Br        13.4039477953       20.2544591973       20.2545501249
 Zn         3.7951685032        8.0606387458       18.8096754011
 Br         2.4875294183        9.3817512945       20.1235518911
 Zn         3.7953412653       18.8093797327        8.0606417225
 Br         2.4877391130       20.1234062786        9.3816758366
 Zn        14.6063619893       14.7841728388        8.0976510550
 Br        13.0893301425       13.9864204840        9.5873837551
 Zn        14.6228907562        3.9060173788       18.8516799226
 Br        13.3216673184        2.5784867169       20.1625828087
 Zn         3.8436961681       14.7020937374       18.8360140083
 Br         2.5255898818       13.3837220607       20.1440038810
 Zn         3.7676230672        3.8791059548        8.0189015312
 Br         2.4502131052        2.5765321320        9.3441009190
 Zn         7.9491715077        7.9607006830        7.9610555307
 Br         9.2456304102        9.2832297544        9.2845403013
 Zn         7.9417707574       18.8847390291       18.8847964316
 Br         9.2247313030       20.2151875106       20.2152309427
 Zn        18.7826795319        8.0541217808       18.8679020195
 Br        20.1147428389        9.3345429221       20.1973760709
 Zn        18.7824281911       18.8672522503        8.0541938147
 Br        20.1142698806       20.1969378210        9.3347410891
 Zn        14.6055125978        8.0984281029       14.7872580457
 Br        13.0852252390        9.5908491475       14.0004126805
 Zn        14.6227845793       18.8506701369        3.9065250677
 Br        13.3214107728       20.1618075998        2.5792645573
 Zn         3.7673764311        8.0185160212        3.8797852195
 Br         2.4503331654        9.3439035632        2.5770657631
 Zn         3.8437300487       18.8359402070       14.7020950688
 Br         2.5256780800       20.1439589555       13.3836928531
 Zn         8.0329994921       14.7512362053       14.7514483761
 Br         9.3239993753       13.4251281369       13.4254958488
 Zn         7.8488045810        3.8262853059        3.8263703049
 Br         9.1450041590        2.5020824588        2.5021825274
 Zn        18.7195162944       14.6647938323        3.9754726703
 Br        20.0168704206       13.3253866268        2.6681016456
 Zn        18.7187763138        3.9769962878       14.6645178194
 Br        20.0155537148        2.6695039145       13.3246344356
 Zn         5.8553451002        5.9648158779       16.7534302126
 Zn        16.7610867652       16.8528275457       16.8526255173
 Zn        16.6641769565        5.9085791753        5.9083247098
 Zn         5.8555679139       16.7529260232        5.9649436472
 Zn         5.8361110568        5.9257092855        5.9263420579
 Zn        16.6749416224       16.7761920067        6.0144226984
 Zn         5.9223876870       16.7851426388       16.7852278124
 Zn        16.6746472901        6.0144431003       16.7767478317
  N         3.6745231048        5.9783881095       16.7487795125
  N        14.4687794034        5.8456688283        5.8460455523
  N        18.9297948112       16.8356514649       16.8356147064
  N         8.0457798299       16.7438765489        5.9328696533
  N        18.8454921009        5.9719145641        5.9728308297
  N         8.0454385965        5.9323998568       16.7444429780
  N         3.6747494262       16.7485205505        5.9784287308
  N        14.5645580182       16.8810189790       16.8811747487
  N        16.7031468488        3.7514116567        5.9199746563
  N        16.7573038874       14.6533258400       16.8533013504
  N        16.7703752947       19.0285757562       16.8458340352
  N        16.6252932866        8.1138881270        5.9116718686
  N         5.8494775543       18.9352582091        5.9814874259
  N         5.8896931408        8.1517116897       16.7518564137
  N         5.8451580168        3.7829155776       16.7620715352
  N         5.8501008408       14.5644695552        5.9669375914
  N         5.8454550132       16.7615971554        3.7830460003
  N         5.8499080143        5.9667974535       14.5648517006
  N        16.7703640549       16.8459491845       19.0284531163
  N        16.6228150830        5.9138889842        8.1142096196
  N         5.8491060794        5.9814067129       18.9356289064
  N         5.8897798016       16.7514639346        8.1518348327
  N        16.7037480976        5.9189709465        3.7513834593
  N        16.7573240186       16.8534304663       14.6531905140
  N         5.7965571652        3.7425003814        5.9211855195
  N         5.9463740772       14.6037427925       16.7927884221
  N        16.7075434342       18.9498799549        5.9807451257
  N        16.7193145524        8.1984548977       16.8120330094
  N         5.8900026532       18.9736059131       16.7905725653
  N         5.8687542586        8.1129280127        5.9175939333
  N        16.6679676825        3.8337882567       16.7353163237
  N        16.6443975766       14.5681585658        6.0767255261
  N         3.7351164245       16.7630568889       16.7630944769
  N        14.4971493207       16.7992765118        5.9688835989
  N        18.8647132210       16.7546468132        6.0096995688
  N         8.1103189895       16.8223520136       16.8224602725
  N        18.8644794734        6.0100721766       16.7546789750
  N         8.0173104170        5.8841126544        5.8846168033
  N         3.6543923070        5.9629559592        5.9635001715
  N        14.4967897679        5.9679167720       16.8002738543
  N        16.7075844384        5.9805780720       18.9500246448
  N        16.7187991771       16.8109542224        8.1983094812
  N        16.6682059661       16.7352642042        3.8336268301
  N        16.6429396375        6.0781223262       14.5685326032
  N         5.7964203623        5.9209549319        3.7428712281
  N         5.9464293945       16.7926965992       14.6038555861
  N         5.8899933846       16.7905479620       18.9737132055
  N         5.8685916588        5.9172851877        8.1133266920
  C        11.3559179042       15.8001926685       15.8006396152
  H        11.3746854134       15.0248845046       15.0253892041
  C        11.2295452654        4.7974357111        4.7979278591
  H        11.2145673145        4.0223371536        4.0221300068
  C         0.4441789217       15.6880837440        4.9380280605
  H         0.4409601128       14.9090783880        4.1661326063
  C         0.4439488670        4.9382278450       15.6880361433
  H         0.4407573801        4.1663852531       14.9089682864
  C        11.2738617259        6.9329543852       15.6517506830
  H        11.2747426997        7.6858076730       14.8554510393
  C        11.2689565093       17.8412443536        4.9001085719
  H        11.2677076391       18.6440238633        4.1529488184
  C         0.4301219706        7.0353749821        4.9207828104
  H         0.4305673444        7.8099138295        4.1442286648
  C         0.5116713730       17.8521616609       15.7360216249
  H         0.5118312637       18.6276737209       14.9604609672
  C        11.2741028360       15.6517578878        6.9346744526
  H        11.2749536929       14.8555775474        7.6876915632
  C        11.2684501429        4.8992616405       17.8419842879
  H        11.2670578638        4.1523883615       18.6450217677
  C         0.5116479722       15.7360327720       17.8521606996
  H         0.5117917557       14.9604665138       18.6276679066
  C         0.4302596952        4.9202833800        7.0365628538
  H         0.4309629455        4.1439649674        7.8113120642
  C        11.2543824647        6.9106922126        6.9129518515
  H        11.2683360959        7.6857534431        7.6881068169
  C        11.3176718559       17.9140170485       17.9141017107
  H        11.3001900042       18.6894673131       18.6894268975
  C         0.4556643282        7.0417205462       17.8145926201
  H         0.4594509576        7.8124505127       18.5949209560
  C         0.4558662203       17.8143946741        7.0417615794
  H         0.4596863317       18.5946456232        7.8125767886
  C        15.6986740111       11.4402894028       15.7579442990
  H        14.9166637017       11.4520682668       14.9898968031
  C        15.6690908154        0.5202877113        4.8773649163
  H        14.9027892251        0.5123140425        4.0926155592
  C         4.7992543564       11.3435988597        4.8921833460
  H         4.0209404264       11.3460330508        4.1195238056
  C         4.8136131877        0.5462355364       15.7106836760
  H         4.0445792183        0.5356768708       14.9288832054
  C        15.5636739107       11.3154874634        7.0504049503
  H        14.7786397242       11.2801992732        7.8140114861
  C        15.6714249816        0.6128621104       17.8512590930
  H        14.9040725166        0.6164950553       18.6350359983
  C         4.8532737743       11.3806474479       17.8119804958
  H         4.0636050648       11.3834271273       18.5731651001
  C         4.7719620414        0.5202414675        7.0243618613
  H         4.0080182642        0.5210586504        7.8112457486
  C         7.0066277328       11.3748432089       15.7373096919
  H         7.7943597743       11.3730014571       14.9743032201
  C         6.8575180935        0.5173515527        4.8786596722
  H         7.6223333863        0.5166119836        4.0925765352
  C        17.6941958724       11.3653490241        4.9557234989
  H        18.4749958492       11.3900897361        4.1855711390
  C        17.7647771839        0.6086482941       15.7132014528
  H        18.5325803980        0.6047114847       14.9301962305
  C         6.9202211946       11.3339801967        7.0006583862
  H         7.6971355615       11.3320359675        7.7747932614
  C         6.9099719397        0.5705428364       17.8447081638
  H         7.6783901670        0.5815718915       18.6272363232
  C        17.8038480013       11.4120267502       17.8789006848
  H        18.5749419969       11.3995056116       18.6585766741
  C        17.7612459783        0.5419202403        7.0186873182
  H        18.5283788605        0.5495470373        7.8025076744
  C        15.6979437585       15.7578738079       11.4403771173
  H        14.9159304901       14.9898105831       11.4524183093
  C        15.6689921119        4.8771195821        0.5203048180
  H        14.9025727868        4.0925014012        0.5122498234
  C         4.8136883556       15.7105375384        0.5463305887
  H         4.0446352883       14.9287594223        0.5357526334
  C         4.7991193433        4.8919259114       11.3440079638
  H         4.0208941741        4.1191736984       11.3464610028
  C         7.0066608485       15.7370712366       11.3750123703
  H         7.7943529423       14.9740228423       11.3731777740
  C         6.8572337276        4.8785577808        0.5176430510
  H         7.6220200731        4.0924485694        0.5168249730
  C        17.7649227841       15.7134059890        0.6084549509
  H        18.5327902915       14.9304665138        0.6045544543
  C        17.6920135266        4.9576413417       11.3653885678
  H        18.4727986335        4.1874276480       11.3897886705
  C        15.5616766819        7.0525073559       11.3160768443
  H        14.7770399410        7.8164936698       11.2812507529
  C        15.6712851406       17.8512200611        0.6127776352
  H        14.9038463327       18.6349082481        0.6164284170
  C         4.7717735553        7.0243561223        0.5206694846
  H         4.0078759582        7.8112788046        0.5215356856
  C         4.8534276184       17.8118706240       11.3807157922
  H         4.0637932122       18.5730956120       11.3834638304
  C         6.9197725947        7.0007157438       11.3343343525
  H         7.6965977110        7.7749422292       11.3323235910
  C         6.9100924517       17.8445013886        0.5706839334
  H         7.6785232070       18.6270158597        0.5817278321
  C        17.7616041308        7.0180855802        0.5420338690
  H        18.5288680246        7.8017860547        0.5497347303
  C        17.8034587922       17.8785139034       11.4116068951
  H        18.5746587527       18.6580966663       11.3988620150
 Kr        11.7243785591       11.3424397781       11.3497259711
