     409
 i =     176, E =    -5136.7103314539
  N         2.8588444838        5.2040005164       16.0239077804
  C         1.5404899979        5.4735398279       16.2928168046
  N        13.6719115367        5.2006127076        5.2006771708
  C        12.3543344513        5.4718924614        5.4719221649
  N        19.5443824079       17.5756747315       16.0192899660
  C        20.8623594439       17.3068116411       16.2910385166
  N         8.7198301016       17.5807024157        5.2052683064
  C        10.0377102113       17.3082376674        5.4734823050
  N        19.5346068581        5.1990068549        6.7555194025
  C        20.8523985260        5.4721087449        6.4878898992
  N         8.7197451220        5.2052672036       17.5806900534
  C        10.0375719777        5.4735064626       17.3082040288
  N         2.8564261611       17.5795252631        6.7612729208
  C         1.5390322650       17.3082675535        6.4896747120
  N        13.6838092318       17.5753219478       17.5754007303
  C        12.3657037207       17.3058993027       17.3059328939
  N        15.8245691190        3.0448847866        5.1990107958
  C        16.0946230926        1.7272113828        5.4693551683
  N        15.8366211029       13.8648122382       16.0171105713
  C        16.1060572420       12.5472254870       16.2871804054
  N        15.8368965621       19.7282395985       17.5748108522
  C        16.1052780922       21.0458816394       17.3037791224
  N        15.8303672065        8.9091815364        6.7573927060
  C        16.1017921767       10.2266697443        6.4884737462
  N         6.5645448574       19.7359831645        5.2062097804
  C         6.2928898934       21.0534820518        5.4754427756
  N         6.5664038662        8.9149100591       16.0239297162
  C         6.2977405827       10.2327075818       16.2944866091
  N         6.5664669773        3.0520290223       17.5832723477
  C         6.2989226149        1.7342052396       17.3122864263
  N         6.5642422998       13.8709464033        6.7615586450
  C         6.2939160225       12.5535785912        6.4912997657
  N         5.0131810689       16.0261320546        3.0508211699
  C         5.2844898069       16.2957193477        1.7333295935
  N         5.0114161346        5.2035783642       13.8718251517
  C         5.2797454011        5.4742583066       12.5540490092
  N        17.3895698433       16.0164399786       19.7287735866
  C        17.1192859345       16.2864079672       21.0464090870
  N        17.3832221257        5.1993958925        8.9086960015
  C        17.1158055250        5.4712782495       10.2262857561
  N         5.0095878137        6.7627000739       19.7350745605
  C         5.2776327487        6.4917289729       21.0528663124
  N         5.0125100294       17.5813960078        8.9157634851
  C         5.2832614845       17.3113456594       10.2331182618
  N        17.3787405560        6.7559637703        3.0453855334
  C        17.1092740894        6.4858501998        1.7277295094
  N        17.3912469971       17.5735477924       13.8644819646
  C        17.1211056657       17.3033566776       12.5469431524
  N         5.0054552494        3.0515502633        6.7612028584
  C         5.2754122627        1.7338167642        6.4909895161
  N         5.0163208782       13.8717635940       17.5821286235
  C         5.2850555037       12.5539631749       17.3116580954
  N        17.3828031333       19.7293239582        6.7549932089
  C        17.1115097964       21.0468704771        6.4854379508
  N        17.3862874154        8.9082577485       17.5757533767
  C        17.1185943003       10.2259997370       17.3044768907
  N         5.0175456387       19.7349427611       16.0249112557
  C         5.2868572760       21.0525371571       16.2951440243
  N         5.0075167245        8.9156096073        5.2046451874
  C         5.2778834802       10.2331865344        5.4747010059
  N        17.3856767845        3.0450997182       16.0155457068
  C        17.1171325181        1.7273726821       16.2859950173
  N        17.3876491189       13.8644114430        5.2011170976
  C        17.1180216604       12.5469395125        5.4720727107
  N         2.8625909968       16.0250876123       17.5813224403
  C         1.5446269501       16.2937601492       17.3094617962
  N        13.6780541734       16.0178006013        6.7553506008
  C        12.3600425033       16.2892780089        6.4862415124
  N        19.5407354273       16.0196417115        5.1993120102
  C        20.8581833152       16.2907897096        5.4710582771
  N         8.7235359099       16.0229895981       16.0229419910
  C        10.0418501412       16.2922675010       16.2922420224
  N        19.5382591089        6.7552945513       17.5766497167
  C        20.8565364347        6.4866916290       17.3066964962
  N         8.7158492324        6.7605234593        6.7604849877
  C        10.0334402790        6.4894192479        6.4894018964
  N         2.8525159652        6.7631274835        5.2066975716
  C         1.5346094556        6.4915980840        5.4757903696
  N        13.6779098464        6.7553449914       16.0178170175
  C        12.3600202557        6.4862189734       16.2893040728
  N        15.8296934859        5.1971669084       19.7284193040
  C        16.0971405469        5.4684285063       21.0462131329
  N        15.8326489865       16.0185988504        8.9092035197
  C        16.1039678797       16.2878862621       10.2265901537
  N        15.8324833996       17.5733027774        3.0442815952
  C        16.1031052553       17.3030192725        1.7268090179
  N        15.8338027259        6.7584468880       13.8651115661
  C        16.1035565567        6.4888829055       12.5475521465
  N         6.5594912001        5.2046263288        3.0520210724
  C         6.2902628003        5.4747311642        1.7342433929
  N         6.5693262370       16.0245229763       13.8711154587
  C         6.2993412645       16.2947689322       12.5535209977
  N         6.5723776559       17.5817557856       19.7354584074
  C         6.3019547566       17.3115621068       21.0531078711
  N         6.5613275373        6.7622884469        8.9151993212
  C         6.2923092218        6.4916488309       10.2327524174
  N        19.5382964207       17.5765540231        6.7553100820
  C        20.8567230088       17.3066987797        6.4867046656
  N         8.7259504756       17.5793833673       17.5793127493
  C        10.0435403349       17.3080569968       17.3080216177
  N         2.8526081262        5.2067955119        6.7630194278
  C         1.5345824883        5.4758105572        6.4915739894
  N        13.6778692560        5.1985890783       17.5739806342
  C        12.3598747055        5.4703937845       17.3050945176
  N         2.8625272025       17.5813956427       16.0249869606
  C         1.5446291577       17.3095026208       16.2937080249
  N        13.6779618852       17.5739444249        5.1986035057
  C        12.3600241977       17.3050534455        5.4704260297
  N        19.5405667709        5.1992855046       16.0197271254
  C        20.8580884642        5.4710360120       16.2907757421
  N         8.7138867427        5.2041676059        5.2041105588
  C        10.0320937510        5.4736593035        5.4736346269
  N         6.5723167686       19.7355124535       17.5816445598
  C         6.3018668793       21.0531774225       17.3114900224
  N         6.5613290352        8.9152342145        6.7622069647
  C         6.2923604839       10.2328677476        6.4915850266
  N         6.5595144886        3.0520488666        5.2044842649
  C         6.2903002881        1.7343679668        5.4746218100
  N         6.5692953461       13.8711763299       16.0244677012
  C         6.2992813856       12.5535994538       16.2947077333
  N        15.8323316459        3.0441874204       17.5733663823
  C        16.1029433950        1.7267380296       17.3030965013
  N        15.8339434361       13.8650934450        6.7584856109
  C        16.1036543595       12.5474391842        6.4889455191
  N        15.8297766077       19.7283675157        5.1972120600
  C        16.0972398445       21.0461223370        5.4685199830
  N        15.8325683545        8.9091280368       16.0186869536
  C        16.1038906355       10.2264981224       16.2879608290
  N        17.3827550823        6.7549426734       19.7294661726
  C        17.1114394837        6.4853533944       21.0468967895
  N        17.3863650826       17.5756383948        8.9083131208
  C        17.1186594121       17.3043786342       10.2260976311
  N         5.0054112547        6.7613222534        3.0514494611
  C         5.2753758734        6.4910762010        1.7338152407
  N         5.0163357586       17.5821906905       13.8716719877
  C         5.2850985828       17.3117351277       12.5538648862
  N        17.3857985016       16.0154918952        3.0452057378
  C        17.1172693019       16.2859330810        1.7274099274
  N        17.3875125557        5.2010452016       13.8645100472
  C        17.1179374650        5.4719830090       12.5470155035
  N         5.0176079365       16.0250395700       19.7348699120
  C         5.2869324126       16.2952178109       21.0524826116
  N         5.0075248919        5.2047297597        8.9154996779
  C         5.2778412837        5.4747753503       10.2331341624
  N        17.3894957042       19.7287106255       16.0165506979
  C        17.1191918969       21.0463428391       16.2864833018
  N        17.3832093720        8.9085624922        5.1994759057
  C        17.1158486708       10.2262226183        5.4713403847
  N         5.0130568049        3.0509091972       16.0260727219
  C         5.2843668587        1.7333664752       16.2956697991
  N         5.0115558643       13.8719596293        5.2035471330
  C         5.2798108579       12.5541011657        5.4741594877
  N        17.3787622981        3.0452944178        6.7560882118
  C        17.1093020571        1.7277075836        6.4859462107
  N        17.3912728929       13.8643722070       17.5736327405
  C        17.1210861981       12.5468385733       17.3034349438
  N         5.0096653129       19.7352097342        6.7626696726
  C         5.2777190134       21.0528857977        6.4916610999
  N         5.0124167147        8.9158355586       17.5813124432
  C         5.2831845740       10.2331781786       17.3112501655
  N        19.5345181984        6.7554022483        5.1991101752
  C        20.8524218076        6.4878553732        5.4721380546
  N         8.7195714898        6.7605174405       16.0231835033
  C        10.0376243141        6.4887463154       16.2918833762
  N         2.8564038670        6.7612822476       17.5793705621
  C         1.5388278340        6.4897188421       17.3081883669
  N        13.6741476759        6.7570544679        6.7571045515
  C        12.3557667851        6.4876946469        6.4877191328
  N         2.8590281257       16.0240536115        5.2039590133
  C         1.5405606503       16.2928794225        5.4734678327
  N        13.6818038000       16.0189227982       16.0189837197
  C        12.3641553973       16.2901372430       16.2901647621
  N        19.5444483663       16.0192299431       17.5757163077
  C        20.8623411539       16.2910238964       17.3068194388
  N         8.7197282909       16.0231729178        6.7605392368
  C        10.0376593222       16.2918931847        6.4887464925
  N         6.5666361390       17.5833316089        3.0519232171
  C         6.2990877864       17.3123519901        1.7341400334
  N         6.5640841712        6.7615497612       13.8709759301
  C         6.2938252115        6.4913611314       12.5534590869
  N         6.5644505048        5.2062720048       19.7359381662
  C         6.2927791627        5.4755456480       21.0533975946
  N         6.5665138088       16.0239746552        8.9148792434
  C         6.2978435831       16.2945446585       10.2326145700
  N        15.8369453764       17.5747036276       19.7283138775
  C        16.1053694766       17.3036993781       21.0459630807
  N        15.8303743491        6.7573039761        8.9092184310
  C        16.1017432302        6.4884141609       10.2267811256
  N        15.8245512020        5.1988889310        3.0449248589
  C        16.0945859316        5.4692556614        1.7273339264
  N        15.8366137799       16.0170265147       13.8648811044
  C        16.1060885295       16.2871088285       12.5473013809
 Zn        14.5448761108       14.7242263846       14.7242697466
 Br        13.2273471029       13.4113529794       13.4113924571
 Zn        14.5337170785        3.9051572108        3.9052494532
 Br        13.2155644251        2.5925246251        2.5926280799
 Zn         3.7233527835       14.7310695236        3.9079814655
 Br         2.4063051084       13.4181804202        2.5944409700
 Zn         3.7232672574        3.9080671879       14.7309658844
 Br         2.4062008163        2.5945461017       13.4180726113
 Zn         7.8554148210        8.0545009165       14.7285105810
 Br         9.1724123994        9.3675530753       13.4150406721
 Zn         7.8558075850       18.8762005724        3.9125248173
 Br         9.1726974011       20.1907992624        2.6002900244
 Zn        18.6712779268        8.0491411411        3.9038572102
 Br        19.9878692322        9.3618785824        2.5899153742
 Zn        18.6804928897       18.8693090911       14.7236443218
 Br        19.9975790384       20.1817131098       13.4095878312
 Zn         7.8554726561       14.7285546570        8.0544454716
 Br         9.1724615487       13.4150714349        9.3675149008
 Zn         7.8556625841        3.9125962092       18.8761584804
 Br         9.1725095022        2.6003258293       20.1907617597
 Zn        18.6805425106       14.7235714223       18.8693331806
 Br        19.9976215329       13.4094959139       20.1817281980
 Zn        18.6712986164        3.9038386627        8.0492207460
 Br        19.9878762290        2.5898887807        9.3619800819
 Zn        14.5396153926        8.0511392963        8.0511743773
 Br        13.2239967989        9.3651152080        9.3651462248
 Zn        14.5471625061       18.8697416459       18.8698446448
 Br        13.2315196374       20.1835574517       20.1836772580
 Zn         3.7198737400        8.0557847709       18.8734967973
 Br         2.4030487205        9.3704064822       20.1856699791
 Zn         3.7199996257       18.8735592259        8.0557205925
 Br         2.4031672526       20.1857687540        9.3703104409
 Zn        14.5422274644       14.7245046569        8.0510096173
 Br        13.2255455145       13.4116118619        9.3648787696
 Zn        14.5414573716        3.9028588569       18.8677614684
 Br        13.2240667892        2.5886864856       20.1797370389
 Zn         3.7261651715       14.7309036359       18.8753418694
 Br         2.4097259707       13.4183644308       20.1898114217
 Zn         3.7164337084        3.9106887258        8.0555136463
 Br         2.3995649909        2.5984893636        9.3701011848
 Zn         7.8528537868        8.0547809482        8.0547445231
 Br         9.1704813997        9.3676964463        9.3676661001
 Zn         7.8641418365       18.8743261245       18.8742447757
 Br         9.1815905610       20.1873698832       20.1872529032
 Zn        18.6739417568        8.0489044430       18.8716564464
 Br        19.9906150428        9.3616382202       20.1857176882
 Zn        18.6740319607       18.8715981233        8.0489995100
 Br        19.9907135009       20.1856295148        9.3617416866
 Zn        14.5421663087        8.0509561683       14.7245600815
 Br        13.2254941440        9.3648432884       13.4116564706
 Zn        14.5416150069       18.8676871494        3.9029074791
 Br        13.2242599632       20.1796806959        2.5887153295
 Zn         3.7163989627        8.0555676044        3.9106666511
 Br         2.3995582667        9.3701909061        2.5984538227
 Zn         3.7261525969       18.8753716802       14.7307993881
 Br         2.4097257589       20.1898379591       13.4182471520
 Zn         7.8581976792       14.7288349636       14.7287963170
 Br         9.1744868056       13.4151828103       13.4151523855
 Zn         7.8499424395        3.9099880330        3.9098743935
 Br         9.1655152338        2.5961269561        2.5960299875
 Zn        18.6772021058       14.7234875114        3.9058551032
 Br        19.9944484488       13.4093614594        2.5937722666
 Zn        18.6770806224        3.9057666414       14.7235531953
 Br        19.9943217371        2.5936529332       13.4094545767
 Zn         5.7885859351        5.9876481064       16.8071565107
 Zn        16.6122074480       16.7944288977       16.7945906000
 Zn        16.6051628227        5.9754594592        5.9756187711
 Zn         5.7886698418       16.8072591281        5.9875590449
 Zn         5.7850715005        5.9876863336        5.9875870362
 Zn        16.6087361301       16.7948099125        5.9752427346
 Zn         5.7924118076       16.8073637610       16.8072536534
 Zn        16.6086569991        5.9750845331       16.7949695933
  N         3.6040583542        5.9830422429       16.8021732685
  N        14.4195201431        5.9782428998        5.9783173347
  N        18.7978916474       16.7966562187       16.7966903457
  N         7.9732400624       16.8029636142        5.9839481547
  N        18.7880805206        5.9758029067        5.9757863052
  N         7.9731454123        5.9840667665       16.8028298153
  N         3.6041860328       16.8021745023        5.9828441711
  N        14.4292541488       16.7965949224       16.7966866782
  N        16.6016151002        3.7918180012        5.9773859041
  N        16.6141402388       14.6113469634       16.7955386348
  N        16.6137222733       18.9815311830       16.7959134608
  N        16.6056103074        8.1619548129        5.9776885611
  N         5.7882331205       18.9888913267        5.9851152887
  N         5.7891145671        8.1687342728       16.8024759497
  N         5.7888182027        3.7984971916       16.8049867701
  N         5.7883975142       14.6185357794        5.9822644450
  N         5.7889698634       16.8050424552        3.7984496528
  N         5.7884187407        5.9824595001       14.6184320597
  N        16.6137266710       16.7958250359       18.9816102993
  N        16.6055529552        5.9776870009        8.1620368598
  N         5.7880318645        5.9852460057       18.9888443056
  N         5.7892109507       16.8025631589        8.1686347180
  N        16.6016507757        5.9772972385        3.7919097370
  N        16.6141665398       16.7955122022       14.6114193712
  N         5.7824397769        3.7988268435        5.9831352269
  N         5.7932650429       14.6184621982       16.8034242216
  N        16.6074585677       18.9819117431        5.9756634596
  N        16.6085968214        8.1617265180       16.7978574191
  N         5.7953123957       18.9886249887       16.8033822393
  N         5.7841446974        8.1687984930        5.9834626513
  N        16.6085000843        3.7914408885       16.7944068612
  N        16.6106280681       14.6115004592        5.9793705294
  N         3.6089984220       16.8041363146       16.8040955311
  N        14.4244500453       16.7952034873        5.9762975469
  N        18.7930273645       16.7979845276        5.9767501695
  N         7.9782098640       16.8019921786       16.8019175384
  N        18.7929086868        5.9765755394       16.7979786621
  N         7.9683673857        5.9828141626        5.9827517463
  N         3.5990583477        5.9854785624        5.9855107779
  N        14.4243472554        5.9761912104       16.7953313142
  N        16.6072754818        5.9755056947       18.9819754898
  N        16.6087248148       16.7977944145        8.1618350620
  N        16.6086773452       16.7943012774        3.7914979055
  N        16.6105605283        5.9792315315       14.6116118158
  N         5.7824911018        5.9831963531        3.7987416758
  N         5.7932805103       16.8034743654       14.6184070257
  N         5.7952767248       16.8034400454       18.9885473619
  N         5.7841085762        5.9834897714        8.1687395621
  C        11.2020861949       15.7417675222       15.7417680587
  H        11.2006581365       14.9662744798       14.9662763305
  C        11.1924312575        4.9233370796        4.9233389433
  H        11.1911228938        4.1478397240        4.1478420324
  C         0.3804841164       15.7423746404        4.9228735696
  H         0.3821332923       14.9669088414        4.1473444001
  C         0.3803786910        4.9229016642       15.7423268381
  H         0.3820214021        4.1473714193       14.9668525360
  C        11.1987245935        7.0367149868       15.7409797786
  H        11.1987136294        7.8121097801       14.9653781912
  C        11.1989568489       17.8561359652        4.9226143556
  H        11.1989341764       18.6318687876        4.1473584834
  C         0.3734726006        7.0394520754        4.9247590113
  H         0.3733794417        7.8150488090        4.1493598279
  C         0.3834902651       17.8575972515       15.7429304698
  H         0.3835784954       18.6331724325       14.9675010006
  C        11.1988935281       15.7409794595        7.0367203590
  H        11.1987621364       14.9653814831        7.8121128756
  C        11.1987874508        4.9226121935       17.8561383362
  H        11.1987515124        4.1473573073       18.6318723147
  C         0.3835618104       15.7429441081       17.8575874264
  H         0.3836685749       14.9675136896       18.6331649699
  C         0.3735580912        4.9247557177        7.0394570156
  H         0.3734716843        4.1493576555        7.8150533596
  C        11.1954285119        7.0379912375        7.0379944714
  H        11.1964503827        7.8134854291        7.8134888345
  C        11.2055257118       17.8564421024       17.8564390250
  H        11.2071043906       18.6319473622       18.6319432233
  C         0.3766957279        7.0377953277       17.8566894830
  H         0.3750021221        7.8134300164       18.6320588065
  C         0.3767018954       17.8567360490        7.0377794085
  H         0.3751185405       18.6321003349        7.8134100839
  C        15.5556179704       11.3872042146       15.7372295828
  H        14.7803628481       11.3877008489       14.9614465072
  C        15.5464381510        0.5663322321        4.9187569790
  H        14.7715355935        0.5655940394        4.1426096188
  C         4.7295614275       11.3939580398        4.9240283441
  H         3.9547123652       11.3944686169        4.1478607889
  C         4.7362453874        0.5725895078       15.7451633088
  H         3.9609961503        0.5717641394       14.9693972590
  C        15.5537498874       11.3873538647        7.0395259167
  H        14.7787578914       11.3878614029        7.8155961400
  C        15.5550006109        0.5659325504       17.8539216434
  H        14.7802946674        0.5653143622       18.6302571186
  C         4.7348965476       11.3940017180       17.8618885310
  H         3.9600780476       11.3944643607       18.6380701186
  C         4.7268534459        0.5731043882        7.0412833299
  H         3.9517666722        0.5723685480        7.8172074736
  C         6.8478260417       11.3928402028       15.7441906204
  H         7.6226839727       11.3923364762       14.9680054163
  C         6.8409749401        0.5743295322        4.9248177505
  H         7.6162960085        0.5749888791        4.1491494440
  C        17.6663311325       11.3862560038        4.9214052234
  H        18.4408115806       11.3857240705        4.1448628014
  C        17.6671660446        0.5671513741       15.7355737161
  H        18.4417169220        0.5678293656       14.9590558993
  C         6.8422939356       11.3928672332        7.0419601354
  H         7.6170666622       11.3924188797        7.8181805472
  C         6.8499407686        0.5741110867       17.8620234811
  H         7.6249432074        0.5749791556       18.6380438480
  C        17.6695741786       11.3861013264       17.8539430727
  H        18.4447665047       11.3855437957       18.6298114376
  C        17.6595366746        0.5676005429        7.0361571459
  H        18.4345896117        0.5683022587        7.8121488067
  C        15.5556691556       15.7371547503       11.3872499472
  H        14.7804151991       14.9613775933       11.3877551690
  C        15.5463679122        4.9186674970        0.5664200255
  H        14.7714549943        4.1425164900        0.5657035941
  C         4.7363485092       15.7452323397        0.5724890106
  H         3.9610848771       14.9694693057        0.5717224957
  C         4.7294964573        4.9241141984       11.3938799595
  H         3.9546411496        4.1479518284       11.3943768821
  C         6.8479066990       15.7442519511       11.3928230549
  H         7.6227542761       14.9680732162       11.3922913872
  C         6.8409083526        4.9249242103        0.5742415725
  H         7.6162310357        4.1492610306        0.5748787592
  C        17.6672916347       15.7355000618        0.5672457465
  H        18.4418299324       14.9589856184        0.5678716659
  C        17.6662592248        4.9213338880       11.3863435062
  H        18.4407409185        4.1447862529       11.3858296992
  C        15.5536883843        7.0394548263       11.3873673682
  H        14.7786955545        7.8155315502       11.3879140493
  C        15.5551194151       17.8538606202        0.5660495642
  H        14.7804209766       18.6301876691        0.5654253961
  C         4.7267706166        7.0413782627        0.5729818865
  H         3.9516795754        7.8173038171        0.5723316392
  C         4.7349745272       17.8619648622       11.3939459460
  H         3.9601705153       18.6381397902       11.3943728352
  C         6.8422376873        7.0420370884       11.3928811828
  H         7.6170196288        7.8182600779       11.3923728988
  C         6.8500619521       17.8620682147        0.5739886708
  H         7.6250719116       18.6380830548        0.5748713247
  C        17.6594742075        7.0360457828        0.5677171775
  H        18.4345383097        7.8120321366        0.5683473487
  C        17.6696342758       17.8538686916       11.3861686433
  H        18.4448298570       18.6297358536       11.3856529053
 Kr        20.2056562161       10.5788822319       10.5790167485
