     409
 i =     176, E =    -5136.6955011441
  N         2.9190144702        5.2020231672       15.9713093584
  C         1.6020758809        5.4783407295       16.2411444165
  N        13.7103563037        5.0616644755        5.0619002898
  C        12.3894576007        5.3300426048        5.3311910096
  N        19.6673596735       17.6006349476       16.0452014094
  C        20.9843810996       17.3149207863       16.2993255498
  N         8.7801163259       17.5479545026        5.1736515969
  C        10.1004000737       17.2686354536        5.4228141835
  N        19.5800018885        5.2022577578        6.7589598036
  C        20.8977437442        5.4735727219        6.4902195582
  N         8.7794449261        5.1732100644       17.5487974423
  C        10.0997757738        5.4217745187       17.2692987652
  N         2.9261287379       17.5258712244        6.7595408730
  C         1.6075961386       17.2584433823        6.4923567950
  N        13.7961060568       17.6602930434       17.6603438721
  C        12.4792869194       17.3826934257       17.3829011385
  N        15.9364841240        2.9958191129        5.1382990090
  C        16.2088092831        1.6841093660        5.4251939991
  N        15.9614888488       13.9134441643       16.0580453519
  C        16.2335575376       12.5927591108       16.3121093458
  N        15.9829730531       19.7768554539       17.6163986312
  C        16.2308136014       21.0921523461       17.3172693962
  N        15.8155222492        8.8450176235        6.7088480543
  C        16.0942785859       10.1687643895        6.4817467598
  N         6.6037248142       19.6829555727        5.1890151621
  C         6.3211973092       20.9982913238        5.4501478499
  N         6.6888600096        8.8935028163       15.9924430700
  C         6.4314269074       10.2145677595       16.2679475087
  N         6.6147790357        3.0429121138       17.5471473686
  C         6.3512357233        1.7243044515       17.2817048400
  N         6.6234702817       13.8121458347        6.7418075582
  C         6.3576262719       12.4947717544        6.4620670964
  N         5.0701858845       15.9809169379        3.0317867936
  C         5.3439364487       16.2578230113        1.7156932114
  N         5.0685870106        5.1849992174       13.8194841996
  C         5.3407005638        5.4473614769       12.5006556552
  N        17.5220881504       16.0433742706       19.7704026729
  C        17.2351581718       16.2902780816       21.0892776693
  N        17.3901269701        5.1793218469        8.8793544041
  C        17.1197167803        5.4817655931       10.1906822127
  N         5.0680855076        6.7636486810       19.6797973117
  C         5.3192114345        6.4794102824       20.9981848223
  N         5.1037301154       17.5194422418        8.9029845005
  C         5.3968902024       17.2644356063       10.2184718585
  N        17.4661843481        6.7198163784        3.0173779075
  C        17.2087352494        6.4556217744        1.6962893704
  N        17.5184854813       17.6120196279       13.8974761857
  C        17.2487134445       17.3275220015       12.5819679492
  N         5.0221869078        2.9982721885        6.7144399607
  C         5.2957981675        1.6788291673        6.4551902567
  N         5.1455070713       13.8549710529       17.5540816477
  C         5.4167909129       12.5389234545       17.2806174312
  N        17.4764842463       19.7017316206        6.7592829652
  C        17.2126086433       21.0169803820        6.4747714637
  N        17.4871221718        8.9382486735       17.5831608203
  C        17.2320977328       10.2586062354       17.3114839383
  N         5.1057296764       19.7135340784       16.0019004779
  C         5.3611916565       21.0343089164       16.2696548045
  N         5.0754801441        8.8638206762        5.1488275362
  C         5.3470728892       10.1788333219        5.4289709399
  N        17.4419234388        3.0902941508       15.9532682919
  C        17.1973773598        1.7710183635       16.2438711508
  N        17.4040953797       13.8322157073        5.3001736090
  C        17.1261403695       12.5115925060        5.5448110194
  N         2.9801937560       15.9916033962       17.5464251981
  C         1.6633187798       16.2729899529       17.2885094070
  N        13.7448438728       15.9827654479        6.7051795942
  C        12.4262006122       16.2349907795        6.4173238868
  N        19.5992972974       15.9645994373        5.2404118218
  C        20.9199302584       16.2378700487        5.4950506344
  N         8.8615504394       16.0569735137       16.0572429337
  C        10.1726772435       16.3439759343       16.3443254862
  N        19.6113995843        6.7775188732       17.5380326988
  C        20.9265067876        6.5012950675       17.2628476944
  N         8.7658432710        6.6468130144        6.6484609296
  C        10.0759761235        6.3604696265        6.3626750973
  N         2.8960515892        6.7436532346        5.1888455662
  C         1.5785773007        6.4823818944        5.4674152647
  N        13.7442904280        6.7032996930       15.9834290178
  C        12.4256538693        6.4153504497       16.2354052686
  N        15.9342422607        5.1904479387       19.6911501422
  C        16.2076604261        5.4486757999       21.0083585347
  N        15.9329896117       16.0247199036        8.9512461754
  C        16.2167727243       16.2943943768       10.2685610342
  N        15.9065981581       17.5283621752        3.0848911399
  C        16.1944189611       17.2718442974        1.7700031881
  N        15.8400265347        6.8558098733       13.8116689449
  C        16.1022496589        6.5573107741       12.4959741469
  N         6.5540421468        5.1358522295        2.9899575908
  C         6.2957592959        5.4244351893        1.6756217988
  N         6.7299020547       16.0269551902       13.8606080405
  C         6.4513036844       16.2837587880       12.5400789395
  N         6.6415236916       17.5763113318       19.7310105818
  C         6.3652306633       17.2966296195       21.0451316955
  N         6.6437838154        6.6910488652        8.8501164404
  C         6.3689007748        6.4381216353       10.1715326552
  N        19.6116485453       17.5378637893        6.7774503504
  C        20.9267797143       17.2627635813        6.5012639137
  N         8.8276112974       17.6128900693       17.6129457476
  C        10.1528011524       17.3591633600       17.3593429352
  N         2.8961397680        5.1884507122        6.7442269999
  C         1.5786138002        5.4669315804        6.4830575313
  N        13.7407111057        5.1987450815       17.5868673919
  C        12.4232032425        5.4363790750       17.2861205661
  N         2.9802074055       17.5463890551       15.9916294470
  C         1.6633286085       17.2884917587       16.2730077748
  N        13.7413386341       17.5856009687        5.1998321403
  C        12.4238243456       17.2852521596        5.4378131537
  N        19.5989289954        5.2408549818       15.9643974489
  C        20.9196165090        5.4952641494       16.2377713220
  N         8.7382374458        5.0919063156        5.0920544777
  C        10.0623700339        5.3464374401        5.3474714279
  N         6.6414906880       19.7308843240       17.5763795784
  C         6.3651679999       21.0450031589       17.2967520873
  N         6.6443133507        8.8497728755        6.6910511664
  C         6.3693853845       10.1711895248        6.4381410997
  N         6.5542363076        2.9896769268        5.1360148804
  C         6.2960020521        1.6753023795        5.4245235914
  N         6.7298437195       13.8604690312       16.0270509791
  C         6.4512386773       12.5399469853       16.2838797610
  N        15.9064930058        3.0848871513       17.5286544214
  C        16.1943827207        1.7700571809       17.2719348766
  N        15.8420943199       13.8109143088        6.8541792583
  C        16.1044818730       12.4952859581        6.5554723546
  N        15.9342739277       19.6910069549        5.1906564625
  C        16.2076832244       21.0082485174        5.4489769056
  N        15.9331621951        8.9511450909       16.0255143731
  C        16.2171031677       10.2685043151       16.2947707507
  N        17.4764958020        6.7589980889       19.7019123575
  C        17.2126599071        6.4743765439       21.0171140636
  N        17.4869198164       17.5824267773        8.9380875586
  C        17.2317881198       17.3110943982       10.2584800319
  N         5.0220481475        6.7143149284        2.9986984628
  C         5.2956003549        6.4551450305        1.6792198751
  N         5.1455906721       17.5540183458       13.8550586898
  C         5.4168869035       17.2805323573       12.5390190640
  N        17.4423536535       15.9533731131        3.0900352952
  C        17.1975905583       16.2439706352        1.7708446660
  N        17.4021078632        5.3016439390       13.8324648266
  C        17.1238730164        5.5465685884       12.5119127047
  N         5.1057276327       16.0018606681       19.7136293720
  C         5.3612308258       16.2695542065       21.0344128669
  N         5.0753797278        5.1483770856        8.8642082996
  C         5.3468204793        5.4287197593       10.1792047729
  N        17.5220557620       19.7705247800       16.0432846304
  C        17.2350977810       21.0893964546       16.2902232645
  N        17.3929060652        8.8792162823        5.1768939956
  C        17.1224078369       10.1904575568        5.4795173467
  N         5.0699704599        3.0316763060       15.9813321635
  C         5.3437889399        1.7155741225       16.2581008900
  N         5.0687475656       13.8190938358        5.1851990068
  C         5.3409505966       12.5002790439        5.4475188291
  N        17.4656211914        3.0174302772        6.7211076742
  C        17.2084949993        1.6962919644        6.4565412811
  N        17.5183982398       13.8976898662       17.6118790516
  C        17.2488668596       12.5821141330       17.3274907199
  N         5.0683908261       19.6794220312        6.7636509591
  C         5.3195067037       20.9978035169        6.4793962004
  N         5.1036076003        8.9029012241       17.5196455895
  C         5.3967971875       10.2183749116       17.2645885855
  N        19.5800814005        6.7576891420        5.2025794166
  C        20.8977599381        6.4891497965        5.4741511602
  N         8.7895360689        6.6719375070       15.9382317248
  C        10.1044722866        6.3968093643       16.2161864527
  N         2.9258588512        6.7595247897       17.5261011655
  C         1.6073269414        6.4923704299       17.2586014436
  N        13.7095169143        6.6143770713        6.6164840070
  C        12.3930699592        6.3447797277        6.3471927588
  N         2.9192809607       15.9711076810        5.2020068551
  C         1.6023543318       16.2410344518        5.4782745214
  N        13.8146707015       16.1055204139       16.1060026125
  C        12.4935629539       16.3669471617       16.3674035177
  N        19.6673517851       16.0452278720       17.6005879367
  C        20.9843741595       16.2993375364       17.3148957417
  N         8.7898986768       15.9380083369        6.6730529152
  C        10.1049454723       16.2159636552        6.3983821124
  N         6.6150738484       17.5466691705        3.0430871089
  C         6.3514244047       17.2813920940        1.7244572437
  N         6.6231541505        6.7417597170       13.8124954204
  C         6.3572542700        6.4620332427       12.4951231006
  N         6.6032558685        5.1888691231       19.6833426614
  C         6.3208108185        5.4500837793       20.9986543335
  N         6.6887959637       15.9920498359        8.8936826616
  C         6.4314251509       16.2676988549       10.2147158487
  N        15.9829176964       17.6163844753       19.7768101883
  C        16.2307904460       17.3172462967       21.0920994027
  N        15.8126393159        6.7115561563        8.8455517937
  C        16.0916695170        6.4841179297       10.1692170185
  N        15.9365639198        5.1375405091        2.9957941281
  C        16.2087958780        5.4245370676        1.6841022059
  N        15.9614541280       16.0583211864       13.9135903144
  C        16.2332869152       16.3122329151       12.5928206497
 Zn        14.6574893510       14.8134197814       14.8133313838
 Br        13.1470291496       13.6140211598       13.6094728040
 Zn        14.6495206252        3.8000565372        3.8003685709
 Br        13.3939661470        2.4590937381        2.4595585228
 Zn         3.7803611706       14.6877546911        3.8956003103
 Br         2.4505474286       13.3921354841        2.5763185202
 Zn         3.7801978021        3.8955019120       14.6882748852
 Br         2.4503194088        2.5763341523       13.3925288217
 Zn         7.9441075223        8.0065571496       14.6734900695
 Br         9.2229539409        9.3208381137       13.3253424747
 Zn         7.9054585047       18.8395183324        3.8978949921
 Br         9.2198215590       20.1610114726        2.5897199839
 Zn        18.7187278066        8.0388837747        3.8978259457
 Br        20.0351734627        9.3643997339        2.5993539113
 Zn        18.8163026083       18.9011919709       14.7579439183
 Br        20.1239714774       20.2168835255       13.4365451268
 Zn         7.9441302821       14.6729955656        8.0069319656
 Br         9.2229554751       13.3251460778        9.3215699412
 Zn         7.9049805218        3.8976051214       18.8403044228
 Br         9.2193992035        2.5893475484       20.1616319948
 Zn        18.8162603105       14.7580160990       18.9010898996
 Br        20.1238427492       13.4363257056       20.2165713318
 Zn        18.7172771633        3.8988864113        8.0408498306
 Br        20.0329797465        2.6008067124        9.3673143524
 Zn        14.5017890735        7.9208477890        7.9167558554
 Br        12.9331798553        9.1001340758        9.0663702791
 Zn        14.6994117521       18.9355717206       18.9355672262
 Br        13.4024616731       20.2581353704       20.2582707108
 Zn         3.7914133471        8.0610482924       18.8080929154
 Br         2.4819584968        9.3813934558       20.1215339017
 Zn         3.7915694831       18.8078384090        8.0610435009
 Br         2.4821545021       20.1214261919        9.3813004915
 Zn        14.5737135622       14.7813051066        8.1075712287
 Br        12.9951979253       14.0411726166        9.5759983850
 Zn        14.6186828966        3.9060669094       18.8512498242
 Br        13.3179570332        2.5783541702       20.1623785656
 Zn         3.8379401234       14.7013935809       18.8367937952
 Br         2.5173350246       13.3839706944       20.1436046656
 Zn         3.7536245571        3.8781789819        8.0171697562
 Br         2.4386515187        2.5745336763        9.3433051055
 Zn         7.9426205332        7.9556725887        7.9560262229
 Br         9.2008493819        9.2961086047        9.2978499203
 Zn         7.9271098198       18.8877915379       18.8878524534
 Br         9.2118040096       20.2176861972       20.2177282148
 Zn        18.7741371600        8.0571642644       18.8618990505
 Br        20.1032732449        9.3405451194       20.1915689395
 Zn        18.7740682758       18.8612386732        8.0572237061
 Br        20.1029452179       20.1911616565        9.3407286845
 Zn        14.5713800871        8.1080916884       14.7845026665
 Br        12.9890647252        9.5794636845       14.0577776195
 Zn        14.6186424247       18.8500094845        3.9066993659
 Br        13.3177660433       20.1614145476        2.5792882786
 Zn         3.7534506337        8.0169158126        3.8788213381
 Br         2.4388049815        9.3432101874        2.5750365582
 Zn         3.8379645308       18.8367259495       14.7014042613
 Br         2.5174272796       20.1435606629       13.3839404824
 Zn         8.0241414198       14.7538813231       14.7540520760
 Br         9.2962111263       13.4179192723       13.4183054877
 Zn         7.8395287801        3.8190673512        3.8191046785
 Br         9.1345459594        2.4949278981        2.4950222056
 Zn        18.7110991066       14.6621104604        3.9858321109
 Br        20.0053984051       13.3209074494        2.6768106055
 Zn        18.7100738109        3.9870704343       14.6618781367
 Br        20.0039379178        2.6781655375       13.3201480602
 Zn         5.8510282272        5.9653994471       16.7518122967
 Zn        16.7414232781       16.8515102486       16.8513339754
 Zn        16.6526358497        5.9105889664        5.9103438135
 Zn         5.8512473351       16.7512654513        5.9655380004
 Zn         5.8276712996        5.9198091405        5.9203901930
 Zn        16.6663944314       16.7755325201        6.0161353121
 Zn         5.9101190429       16.7866228730       16.7867158862
 Zn        16.6660701616        6.0161585551       16.7760809897
  N         3.6687639805        5.9785746394       16.7479209599
  N        14.4570002525        5.8403042343        5.8410036010
  N        18.9207001548       16.8311320110       16.8310919772
  N         8.0380684428       16.7449485437        5.9313413941
  N        18.8334021451        5.9781239072        5.9788801617
  N         8.0375603969        5.9308180168       16.7455923472
  N         3.6690355709       16.7476685329        5.9786025557
  N        14.5519144979       16.8859696121       16.8861724704
  N        16.6964118738        3.7522229013        5.9235457393
  N        16.7386085126       14.6529152277       16.8436405753
  N        16.7626854663       19.0277507135       16.8431264232
  N        16.6023855600        8.1148538845        5.9233718975
  N         5.8443961444       18.9343061833        5.9821035496
  N         5.8856976342        8.1518706518       16.7501646371
  N         5.8401692664        3.7840612719       16.7618075722
  N         5.8455602829       14.5623874565        5.9676214018
  N         5.8404665010       16.7612856086        3.7842000562
  N         5.8453603125        5.9674734965       14.5627579082
  N        16.7626622113       16.8431765005       19.0276585625
  N        16.5996155563        5.9259851916        8.1152008421
  N         5.8439959814        5.9819938650       18.9346832119
  N         5.8857317390       16.7498192443        8.1520003608
  N        16.6968524222        5.9224155964        3.7521867728
  N        16.7387375404       16.8438822384       14.6528679432
  N         5.7853321243        3.7406614513        5.9176881416
  N         5.9388911099       14.6040664548       16.7947861627
  N        16.7020845999       18.9496414327        5.9824243642
  N        16.7016997239        8.1987597777       16.8063518570
  N         5.8793253908       18.9752629123       16.7918155578
  N         5.8599479399        8.1100994713        5.9132043744
  N        16.6631022230        3.8343345904       16.7334596792
  N        16.6285648323       14.5688216206        6.0879527833
  N         3.7271573816       16.7632785556       16.7633183479
  N        14.4888964892       16.7984315653        5.9680988228
  N        18.8582273156       16.7515480407        6.0148305832
  N         8.0978430804       16.8264799083       16.8265874402
  N        18.8579169076        6.0151651348       16.7515556901
  N         8.0054248113        5.8766601441        5.8771569123
  N         3.6427795487        5.9610326273        5.9614925045
  N        14.4883341514        5.9668313651       16.7995936640
  N        16.7020481933        5.9822052316       18.9497900401
  N        16.7016234345       16.8053742962        8.1987313828
  N        16.6634388874       16.7332941171        3.8342252971
  N        16.6266928942        6.0893170074       14.5693048534
  N         5.7851855525        5.9175083443        3.7410241792
  N         5.9389496809       16.7947155682       14.6041774574
  N         5.8793247679       16.7917880062       18.9753737194
  N         5.8596955406        5.9129251221        8.1104760539
  C        11.3425654966       15.8072899313       15.8078327335
  H        11.3631440513       15.0321316402       15.0327080533
  C        11.2185673828        4.7887425362        4.7893125503
  H        11.2048643660        4.0138989331        4.0135197973
  C         0.4378914011       15.6875258985        4.9393199766
  H         0.4345216136       14.9085081854        4.1674372726
  C         0.4376060963        4.9395054533       15.6874857191
  H         0.4342933098        4.1676776274       14.9084155274
  C        11.2644578660        6.9247931016       15.6498909510
  H        11.2654247477        7.6767769145       14.8531236212
  C        11.2613117769       17.8432344994        4.8976682354
  H        11.2603334373       18.6468491368        4.1514859143
  C         0.4183616440        7.0366247210        4.9219710556
  H         0.4192898078        7.8111707987        4.1454384540
  C         0.5037862188       17.8513251560       15.7353265953
  H         0.5042457281       18.6268266701       14.9597523213
  C        11.2648561616       15.6499743236        6.9270575415
  H        11.2657411062       14.8533660297        7.6792705233
  C        11.2605547748        4.8966086878       17.8441832617
  H        11.2593656262        4.1507843456       18.6481169564
  C         0.5037630894       15.7353156119       17.8513183809
  H         0.5042095189       14.9597290993       18.6268095181
  C         0.4184812359        4.9216176622        7.0376518408
  H         0.4196382087        4.1453072913        7.8124076723
  C        11.2399410211        6.8998276159        6.9031436549
  H        11.2553099282        7.6747071488        7.6780702662
  C        11.3051285340       17.9202148770       17.9203182895
  H        11.2878806759       18.6955996149       18.6955569893
  C         0.4500939040        7.0426815023       17.8140732019
  H         0.4544444311        7.8133974213       18.5944174644
  C         0.4503726417       17.8138987658        7.0427242576
  H         0.4547478465       18.5941705551        7.8135136128
  C        15.6792015972       11.4390645392       15.7528627758
  H        14.8923475298       11.4489365767       14.9900133177
  C        15.6660525468        0.5206458454        4.8783068335
  H        14.9005771906        0.5129911218        4.0926763017
  C         4.7922394684       11.3426512418        4.8912515592
  H         4.0135694185       11.3465034103        4.1190200647
  C         4.8075910906        0.5483711686       15.7090253322
  H         4.0390760099        0.5385018103       14.9267333549
  C        15.5457003867       11.3175589873        7.0610157141
  H        14.7587059511       11.2849079725        7.8222071749
  C        15.6686706860        0.6130758162       17.8505125331
  H        14.9019111613        0.6168179591       18.6349655901
  C         4.8480739458       11.3796638937       17.8124099510
  H         4.0582341895       11.3814898284       18.5734073186
  C         4.7655197624        0.5187420203        7.0254610028
  H         4.0019501832        0.5191004239        7.8126574777
  C         7.0016018138       11.3761631940       15.7380488856
  H         7.7889744900       11.3755723150       14.9747029972
  C         6.8502573384        0.5164770492        4.8787314978
  H         7.6148680768        0.5162613950        4.0924161613
  C        17.6780639692       11.3648386493        4.9685947410
  H        18.4593639040       11.3881092903        4.1986357577
  C        17.7592473881        0.6081364368       15.7104857462
  H        18.5262753786        0.6039168609       14.9268278895
  C         6.9142865383       11.3300998667        6.9980300265
  H         7.6908639608       11.3268466230        7.7724673840
  C         6.9023554387        0.5712988888       17.8449593458
  H         7.6703954153        0.5814920577       18.6279069151
  C        17.7906499338       11.4128924518       17.8679218558
  H        18.5631373030       11.4016241920       18.6464703422
  C        17.7550512865        0.5420559650        7.0221526140
  H        18.5213217415        0.5494666203        7.8067538427
  C        15.6787510978       15.7528438290       11.4392326355
  H        14.8919211824       14.9899313129       11.4493227808
  C        15.6658964780        4.8779085441        0.5206253711
  H        14.9003147475        4.0923849530        0.5128450835
  C         4.8076629087       15.7088684133        0.5484630789
  H         4.0391261294       14.9265981607        0.5385654606
  C         4.7920604205        4.8909809528       11.3430492707
  H         4.0134952464        4.1186489595       11.3469323574
  C         7.0016123903       15.7378414267       11.3763212797
  H         7.7889468842       14.9744552752       11.3757226658
  C         6.8499259700        4.8786279642        0.5167751996
  H         7.6145020684        4.0922787329        0.5164840052
  C        17.7594459182       15.7106057970        0.6079598479
  H        18.5265383446       14.9270059689        0.6037556328
  C        17.6755630369        4.9706131826       11.3649221420
  H        18.4569312897        4.2006614669       11.3878814780
  C        15.5434993855        7.0631804337       11.3183035790
  H        14.7572737922        7.8250862429       11.2863362941
  C        15.6686027718       17.8503962390        0.6130567219
  H        14.9017601915       18.6347640716        0.6168477242
  C         4.7653140802        7.0254940063        0.5191606351
  H         4.0017989980        7.8127416456        0.5195607306
  C         4.8482046034       17.8123320734       11.3797450883
  H         4.0584019905       18.5733694935       11.3815505563
  C         6.9137548815        6.9981016746       11.3304271034
  H         7.6902324601        7.7726396546       11.3270965809
  C         6.9024785938       17.8447366813        0.5714530478
  H         7.6705324170       18.6276713229        0.5816670064
  C        17.7552886119        7.0214756776        0.5421982510
  H        18.5216637221        7.8059808785        0.5497574855
  C        17.7904176653       17.8677388825       11.4126244702
  H        18.5629686072       18.6462198629       11.4011394734
 Kr        14.4279967143       11.2785615115       11.2931397262
