     409
 i =     176, E =    -5136.7074977037
  N         2.9143563512        5.2019308680       15.9772612773
  C         1.5972260419        5.4785803475       16.2453431931
  N        13.7063966179        5.0974287944        5.0975259145
  C        12.3849100230        5.3628318320        5.3633328635
  N        19.6518657260       17.5952605527       16.0396619056
  C        20.9694050163       17.3127323728       16.2970423332
  N         8.7771989302       17.5469375594        5.1769804810
  C        10.0966967128       17.2694468515        5.4324390320
  N        19.5705714526        5.2068007600        6.7629700458
  C        20.8882026312        5.4761834986        6.4923582507
  N         8.7768808217        5.1767331634       17.5473051502
  C        10.0963944359        5.4319539022       17.2697202541
  N         2.9202545916       17.5305561099        6.7606091031
  C         1.6017698383       17.2617038248        6.4936200907
  N        13.7865009758       17.6398509308       17.6398921913
  C        12.4690764775       17.3649501637       17.3650624739
  N        15.9197100444        3.0061039429        5.1516365611
  C        16.1949176750        1.6926357598        5.4325911881
  N        15.9404329005       13.9038010183       16.0472311426
  C        16.2117703662       12.5841729129       16.3051063876
  N        15.9622115494       19.7693973594       17.6106734302
  C        16.2152607845       21.0850583203       17.3157877582
  N        15.8107359740        8.8598865101        6.7216198760
  C        16.0913262498       10.1818655300        6.4867394496
  N         6.6031394597       19.6890472828        5.1897830383
  C         6.3199784858       21.0046505096        5.4513138249
  N         6.6779310942        8.8941542988       15.9942684651
  C         6.4200133162       10.2148377215       16.2696279808
  N         6.6128177032        3.0421784217       17.5509094569
  C         6.3482877434        1.7235788096       17.2851635625
  N         6.6167523606       13.8171191687        6.7413509581
  C         6.3492381006       12.5001666529        6.4621968421
  N         5.0659763656       15.9872640482        3.0321020914
  C         5.3395459194       16.2628575155        1.7158346201
  N         5.0627794228        5.1839078706       13.8255554385
  C         5.3330149944        5.4468209016       12.5064359788
  N        17.5024642344       16.0389643073       19.7622368401
  C        17.2204911610       16.2896216752       21.0815738350
  N        17.3844112558        5.1866736016        8.8841620755
  C        17.1165381566        5.4832252720       10.1968565334
  N         5.0641578500        6.7614053693       19.6846699655
  C         5.3158553656        6.4784361946       21.0032244612
  N         5.0968245157       17.5252935643        8.9030633933
  C         5.3877657197       17.2685247199       10.2186897983
  N        17.4545031822        6.7283594478        3.0238559585
  C        17.1977448685        6.4606596671        1.7029900323
  N        17.4984912535       17.5998833536       13.8915635422
  C        17.2284918341       17.3192079588       12.5755970666
  N         5.0167946431        3.0032644896        6.7184805480
  C         5.2918398680        1.6843568851        6.4574870995
  N         5.1349525609       13.8556473793       17.5547583491
  C         5.4059287372       12.5392079087       17.2824633228
  N        17.4701850207       19.7062153258        6.7583084526
  C        17.2045188847       21.0221012862        6.4756903254
  N        17.4712469393        8.9330153099       17.5782360407
  C        17.2136984845       10.2530691262       17.3074879376
  N         5.0984743824       19.7140583807       16.0037332988
  C         5.3552021398       21.0345199767       16.2722129020
  N         5.0621820301        8.8695896662        5.1525356284
  C         5.3354264331       10.1848274736        5.4305680948
  N        17.4381679611        3.0824972762       15.9592458097
  C        17.1897922693        1.7637059725       16.2485263075
  N        17.4080475805       13.8359997674        5.2844257858
  C        17.1279184142       12.5170849401        5.5348401895
  N         2.9671049381       15.9939161986       17.5488719916
  C         1.6497728517       16.2744731843       17.2900092618
  N        13.7372233573       15.9884487525        6.7259827152
  C        12.4196882973       16.2421427263        6.4370489667
  N        19.5949702664       15.9681805231        5.2347733096
  C        20.9150650353       16.2409066081        5.4928716595
  N         8.8464295618       16.0494117303       16.0495649359
  C        10.1588089781       16.3324216949       16.3326075991
  N        19.6049581901        6.7762513093       17.5378860608
  C        20.9205229112        6.5012692621       17.2637973179
  N         8.7542777396        6.6656761494        6.6664827330
  C        10.0669613735        6.3859372635        6.3869262822
  N         2.8861475263        6.7450991716        5.1899056659
  C         1.5687583844        6.4836213282        5.4682818901
  N        13.7369478613        6.7252692643       15.9886946838
  C        12.4194225920        6.4362521013       16.2423074038
  N        15.9252098946        5.1917360826       19.6964862279
  C        16.1977206784        5.4512809670       21.0144140157
  N        15.9113451846       16.0257195270        8.9451883774
  C        16.1957492616       16.2935157207       10.2617748285
  N        15.9002586617       17.5317554586        3.0798503060
  C        16.1854417535       17.2750630897        1.7640497743
  N        15.8463715654        6.8394828227       13.8237315754
  C        16.1061789606        6.5472122673       12.5069236976
  N         6.5539034120        5.1448841747        2.9985313328
  C         6.2948840887        5.4295941189        1.6829915676
  N         6.7158317831       16.0241216535       13.8595131394
  C         6.4383297985       16.2835357647       12.5396286889
  N         6.6370917128       17.5754454141       19.7293641725
  C         6.3609137632       17.2976586649       21.0439824295
  N         6.6272971847        6.6981833416        8.8568740910
  C         6.3556839307        6.4414010638       10.1776132494
  N        19.6051613784       17.5377729527        6.7761771812
  C        20.9207452631       17.2637432511        6.5012208041
  N         8.8199799171       17.6054658030       17.6054863943
  C        10.1436916513       17.3479171331       17.3480079224
  N         2.8861700750        5.1897416417        6.7453535016
  C         1.5687699790        5.4680833659        6.4839181707
  N        13.7373328023        5.2068197648       17.5797037007
  C        12.4192006383        5.4485368529       17.2849967339
  N         2.9671044661       17.5488583726       15.9939097097
  C         1.6497723739       17.2900027699       16.2744730116
  N        13.7376213802       17.5791993049        5.2072533859
  C        12.4194892858       17.2846491649        5.4491240325
  N        19.5946888353        5.2350788958       15.9680700864
  C        20.9148104733        5.4930394513       16.2408508244
  N         8.7371544308        5.1107045720        5.1108435019
  C        10.0594324535        5.3709123602        5.3714221281
  N         6.6370620880       19.7293222277       17.5754579582
  C         6.3608426994       21.0439359446       17.2977061331
  N         6.6276340483        8.8566808266        6.6982075775
  C         6.3560209831       10.1774271804        6.4414178522
  N         6.5539888349        2.9984128394        5.1449399810
  C         6.2950169581        1.6828554938        5.4296272086
  N         6.7157816962       13.8594357886       16.0241793265
  C         6.4382638718       12.5395575318       16.2836011335
  N        15.9001551681        3.0798501241       17.5318680518
  C        16.1853883115        1.7640835036       17.2750908893
  N        15.8473456491       13.8235640069        6.8387056158
  C        16.1072504146       12.5067735118        6.5463770128
  N        15.9252945998       19.6963793651        5.1918935415
  C        16.1977635477       21.0143244625        5.4515068806
  N        15.9112810896        8.9451254661       16.0260417379
  C        16.1957890519       10.2617201260       16.2936881862
  N        17.4701308123        6.7581122938       19.7063328480
  C        17.2045118405        6.4754127759       21.0221977408
  N        17.4713075752       17.5778935525        8.9330022871
  C        17.2136782189       17.3072991516       10.2530677476
  N         5.0167445431        6.7184509600        3.0034568123
  C         5.2917357884        6.4574800310        1.6845323615
  N         5.1350212670       17.5547279634       13.8556846190
  C         5.4060160348       17.2824237514       12.5392519861
  N        17.4384437310       15.9593384528        3.0823483123
  C        17.1899461108       16.2485990370        1.7636005043
  N        17.4070390055        5.2851218532       13.8360201649
  C        17.1267962776        5.5356181667       12.5171318419
  N         5.0984889978       16.0037339003       19.7141017736
  C         5.3552609274       16.2721747382       21.0345652384
  N         5.0620624320        5.1523008958        8.8697788333
  C         5.3352090206        5.4304365070       10.1850152213
  N        17.5024370588       19.7623003121       16.0389382196
  C        17.2204354192       21.0816405362       16.2896002796
  N        17.3855462051        8.8841322135        5.1856404305
  C        17.1177329191       10.1968205876        5.4822715691
  N         5.0657803079        3.0320526322       15.9874550810
  C         5.3393950275        1.7157841186       16.2629893839
  N         5.0629534002       13.8253662626        5.1840145221
  C         5.3332356372       12.5062481991        5.4468963633
  N        17.4541938486        3.0238533375        6.7290023818
  C        17.1976050782        1.7029522297        6.4611739021
  N        17.4984670175       13.8916000481       17.5998337408
  C        17.2285309077       12.5756117436       17.3192058132
  N         5.0643694239       19.6845070695        6.7614174267
  C         5.3160489610       21.0030562137        6.4784304600
  N         5.0967038422        8.9030238736       17.5253864818
  C         5.3876644387       10.2186438059       17.2685970004
  N        19.5706179970        6.7624469260        5.2068929272
  C        20.8882133637        6.4919005848        5.4764096244
  N         8.7829729221        6.6845401148       15.9451412516
  C        10.0988466222        6.4145762246       16.2229136160
  N         2.9200449493        6.7605978640       17.5306517180
  C         1.6015549001        6.4936381559       17.2617737909
  N        13.6988590604        6.6513604728        6.6520864957
  C        12.3840487828        6.3781257634        6.3790799380
  N         2.9145880882       15.9771963028        5.2019119595
  C         1.5974610481       16.2453085991        5.4785211500
  N        13.7984155149       16.0839692260       16.0842026038
  C        12.4791353799       16.3491575384       16.3493864924
  N        19.6518689902       16.0396492118       17.5952542018
  C        20.9694067291       16.2970341923       17.3127315867
  N         8.7831891291       15.9450556725        6.6850841318
  C        10.0990973808       16.2228309770        6.4152908434
  N         6.6130400076       17.5506880118        3.0422442311
  C         6.3484565762       17.2850168772        1.7236351636
  N         6.6164951035        6.7413282723       13.8172977151
  C         6.3489503440        6.4621881486       12.5003472586
  N         6.6028611673        5.1897126147       19.6892107529
  C         6.3197418163        5.4512826771       21.0048040135
  N         6.6779476879       15.9940614035        8.8942452403
  C         6.4200588268       16.2694976211       10.2149136738
  N        15.9621846470       17.6106387179       19.7693714991
  C        16.2152637626       17.3157636992       21.0850290820
  N        15.8097141170        6.7228295846        8.8600217203
  C        16.0902263677        6.4877895070       10.1819645530
  N        15.9198006980        5.1512104830        3.0061470477
  C        16.1949471102        5.4321980163        1.6926835043
  N        15.9403939534       16.0473503271       13.9038778067
  C        16.2116774634       16.3051496764       12.5842235623
 Zn        14.6382257322       14.7839878000       14.7839706146
 Br        13.1978791152       13.5393965306       13.5378627764
 Zn        14.6265919519        3.8310135361        3.8312011496
 Br        13.3658624671        2.4907488238        2.4910406010
 Zn         3.7752966307       14.6969089873        3.8949337241
 Br         2.4477802045       13.3975041151        2.5765700907
 Zn         3.7751054808        3.8948810917       14.6971180183
 Br         2.4475553777        2.5765757396       13.3976621239
 Zn         7.9342999031        8.0098636144       14.6748546626
 Br         9.2170976771        9.3266751768       13.3329515002
 Zn         7.9045996489       18.8413421202        3.8993236094
 Br         9.2189400226       20.1628836906        2.5913395970
 Zn        18.7103125063        8.0455082075        3.9026775938
 Br        20.0269570973        9.3699101607        2.6032195505
 Zn        18.7912966502       18.8912260902       14.7521031566
 Br        20.1028515343       20.2056238487       13.4318865843
 Zn         7.9344005466       14.6745966685        8.0100591842
 Br         9.2173461634       13.3329214498        9.3269819515
 Zn         7.9043390804        3.8991870508       18.8417168713
 Br         9.2186413842        2.5911313652       20.1632083428
 Zn        18.7912821212       14.7520909318       18.8911914377
 Br        20.1027971723       13.4317431505       20.2054888733
 Zn        18.7096281680        3.9031770548        8.0462075887
 Br        20.0259070929        2.6040071476        9.3712212536
 Zn        14.4996265794        7.9582997284        7.9571518952
 Br        13.0311173205        9.1948605889        9.1831228667
 Zn        14.6731433557       18.9241248564       18.9241323097
 Br        13.3729876011       20.2445057169       20.2446092683
 Zn         3.7872511979        8.0598088630       18.8148225823
 Br         2.4763095638        9.3800102990       20.1269380845
 Zn         3.7873778774       18.8147384138        8.0598136331
 Br         2.4764501538       20.1269187888        9.3799592975
 Zn        14.5704237984       14.7644003633        8.1037784490
 Br        13.0755395101       13.7940265504        9.5229139608
 Zn        14.6128716846        3.9103806039       18.8471457925
 Br        13.3085170586        2.5854328554       20.1593050954
 Zn         3.8292173068       14.7042333958       18.8378696059
 Br         2.5091333354       13.3869947612       20.1458817388
 Zn         3.7429105926        3.8798811585        8.0190762894
 Br         2.4301104809        2.5744350334        9.3450629980
 Zn         7.9207068216        7.9683423305        7.9686628261
 Br         9.2044299478        9.2977174053        9.2985157977
 Zn         7.9232850183       18.8841498825       18.8841543044
 Br         9.2128317037       20.2115297498       20.2115254243
 Zn        18.7652109632        8.0564473895       18.8577350029
 Br        20.0898855393        9.3468953214       20.1850805000
 Zn        18.7652940826       18.8573399188        8.0564815569
 Br        20.0898018037       20.1848312190        9.3470130237
 Zn        14.5694837092        8.1040174926       14.7652567575
 Br        13.0724404760        9.5246573449       13.8004039093
 Zn        14.6129265439       18.8466730030        3.9107099324
 Br        13.3084598082       20.1588657292        2.5858705384
 Zn         3.7428900674        8.0189837406        3.8801879920
 Br         2.4302461717        9.3450826925        2.5747027450
 Zn         3.8292318926       18.8378288973       14.7042118151
 Br         2.5091883539       20.1458423333       13.3869335837
 Zn         8.0093089180       14.7465997672       14.7467352349
 Br         9.2950783156       13.4178699365       13.4180618481
 Zn         7.8422273505        3.8350309436        3.8350371102
 Br         9.1404570404        2.5120633744        2.5120815370
 Zn        18.7113635426       14.6665202007        3.9694890326
 Br        20.0095522802       13.3285498593        2.6627015256
 Zn        18.7108235454        3.9702331705       14.6663855188
 Br        20.0087368578        2.6634301171       13.3281588328
 Zn         5.8470673842        5.9656455795       16.7578684834
 Zn        16.7221262465       16.8363139048       16.8362947593
 Zn        16.6413306907        5.9350071640        5.9348030957
 Zn         5.8472083479       16.7576869420        5.9657380768
 Zn         5.8123229034        5.9317611780        5.9319911279
 Zn        16.6640643109       16.7746480109        6.0119588673
 Zn         5.9008055965       16.7860224717       16.7860507765
 Zn        16.6638208431        6.0120111828       16.7749033002
  N         3.6636317159        5.9787153758       16.7540377888
  N        14.4498084771        5.8775049945        5.8777067515
  N        18.9052620011       16.8239212414       16.8239271830
  N         8.0333090394       16.7472121262        5.9360648026
  N        18.8239785536        5.9840546163        5.9843261575
  N         8.0330433969        5.9357737303       16.7474867726
  N         3.6638520899       16.7539468036        5.9787321371
  N        14.5388741009       16.8637889117       16.8638987095
  N        16.6814486421        3.7611432807        5.9368379376
  N        16.7184797403       14.6449476839       16.8301464716
  N        16.7399122988       19.0195104927       16.8358376199
  N        16.5951569960        8.1251416335        5.9379746227
  N         5.8420439806       18.9399655093        5.9810553434
  N         5.8776554557        8.1521976431       16.7545379128
  N         5.8373171747        3.7839037244       16.7669380929
  N         5.8400213422       14.5680189913        5.9665659069
  N         5.8375471968       16.7667006960        3.7839621794
  N         5.8398279327        5.9664850426       14.5682009563
  N        16.7398963247       16.8358350216       19.0194657266
  N        16.5941323948        5.9391255058        8.1252167492
  N         5.8417864454        5.9809949657       18.9401254052
  N         5.8777280699       16.7543643252        8.1522637574
  N        16.6817133261        5.9362714525        3.7611642488
  N        16.7184987360       16.8302510713       14.6449621366
  N         5.7821446093        3.7476344058        5.9256695493
  N         5.9264481749       14.6039701215       16.7927511085
  N        16.6951682695       18.9544704240        5.9815484413
  N        16.6838532694        8.1929674699       16.8038287655
  N         5.8730418561       18.9747449891       16.7916219434
  N         5.8438812265        8.1165376609        5.9202819409
  N        16.6596276189        3.8280956935       16.7382071667
  N        16.6336560216       14.5766979364        6.0701869834
  N         3.7141369082       16.7659986575       16.7660027882
  N        14.4836120875       16.7955649761        5.9805290688
  N        18.8529967888       16.7533875862        6.0101721989
  N         8.0865586178       16.8208410013       16.8208994226
  N        18.8527486643        6.0103988991       16.7533959476
  N         7.9988286755        5.8928518288        5.8931585386
  N         3.6327066856        5.9625479525        5.9627458246
  N        14.4833327341        5.9800482236       16.7960164802
  N        16.6950720757        5.9814031547       18.9545754660
  N        16.6839767123       16.8034123280        8.1929885506
  N        16.6598652895       16.7381693337        3.8280258361
  N        16.6327264798        6.0708675744       14.5768039530
  N         5.7821022402        5.9256139994        3.7477936785
  N         5.9264930342       16.7927111705       14.6040247303
  N         5.8730430876       16.7916350002       18.9747875447
  N         5.8436953344        5.9201167363        8.1167284518
  C        11.3261055625       15.7920111968       15.7922878638
  H        11.3409076589       15.0166890146       15.0170074095
  C        11.2185967148        4.8168690272        4.8171718682
  H        11.2109007498        4.0414955503        4.0413959115
  C         0.4338396306       15.6916009357        4.9379754295
  H         0.4313198150       14.9133799136        4.1652770861
  C         0.4335908678        4.9381172926       15.6915543826
  H         0.4310805857        4.1654575205       14.9132939047
  C        11.2583088067        6.9515042684       15.6618886560
  H        11.2592311767        7.7069342566       14.8674906733
  C        11.2581335048       17.8406114620        4.9050678040
  H        11.2583310726       18.6397113225        4.1539576622
  C         0.4086658826        7.0384883612        4.9233567506
  H         0.4095235191        7.8133870697        4.1471230968
  C         0.4895862660       17.8510232034       15.7355642400
  H         0.4901098494       18.6264463874       14.9599543922
  C        11.2585403319       15.6619227747        6.9524531759
  H        11.2594195422       14.8675865315        7.7079738935
  C        11.2577974990        4.9046079237       17.8410072947
  H        11.2579164702        4.1536618161       18.6402528968
  C         0.4895881897       15.7355579079       17.8510252399
  H         0.4901194152       14.9599433287       18.6264453207
  C         0.4087010715        4.9232322823        7.0389488983
  H         0.4096647681        4.1471240502        7.8139526493
  C        11.2283503769        6.9306490802        6.9319969706
  H        11.2371887820        7.7058089780        7.7072759772
  C        11.2984281970       17.9059950993       17.9060501774
  H        11.2857073627       18.6815067691       18.6814857886
  C         0.4434005788        7.0443484839       17.8151001540
  H         0.4465618238        7.8160280355       18.5944692710
  C         0.4436136693       17.8149988193        7.0443540496
  H         0.4467763082       18.5943275669        7.8160887579
  C        15.6555933658       11.4296513116       15.7495202264
  H        14.8714023581       11.4379157570       14.9833503147
  C        15.6538242005        0.5282627140        4.8845686177
  H        14.8870456753        0.5207077723        4.1002574236
  C         4.7833078112       11.3489756812        4.8908319825
  H         4.0054478907       11.3533432262        4.1178015309
  C         4.8015904114        0.5494624487       15.7134954519
  H         4.0321134277        0.5409157923       14.9320814750
  C        15.5457319008       11.3343929450        7.0608140787
  H        14.7606329351       11.3109613823        7.8251292670
  C        15.6563734525        0.6070230877       17.8509570637
  H        14.8889505171        0.6116328880       18.6345955968
  C         4.8390329621       11.3800286850       17.8165104022
  H         4.0505143320       11.3819415290       18.5788827627
  C         4.7605194628        0.5232221608        7.0245768826
  H         3.9951485527        0.5221254877        7.8100736395
  C         6.9885489262       11.3760571187       15.7376611164
  H         7.7748990737       11.3751564070       14.9732562559
  C         6.8500699729        0.5243143225        4.8831196255
  H         7.6161758437        0.5253007272        4.0982902247
  C        17.6762481013       11.3664174862        4.9639758284
  H        18.4569086407       11.3826393880        4.1933976093
  C        17.7490039630        0.6002522769       15.7134520364
  H        18.5167794847        0.5959084691       14.9304205186
  C         6.9033800894       11.3355242881        7.0001394799
  H         7.6798320151       11.3313371113        7.7747658567
  C         6.8993965706        0.5695393654       17.8464019101
  H         7.6684038464        0.5785102871       18.6283670752
  C        17.7725675764       11.4082535511       17.8611000077
  H        18.5471510184       11.3992480914       18.6375886917
  C        17.7464036179        0.5476210067        7.0231820070
  H        18.5138437989        0.5546554542        7.8066285311
  C        15.6554755983       15.7494925583       11.4297316686
  H        14.8713109748       14.9832804981       11.4380774103
  C        15.6537495347        4.8842893528        0.5283121835
  H        14.8869220073        4.1000437905        0.5207127723
  C         4.8016874364       15.7134252526        0.5495088517
  H         4.0321967809       14.9320233674        0.5409591059
  C         4.7831238732        4.8906915427       11.3491739194
  H         4.0053241657        4.1176021694       11.3535599024
  C         6.9885893626       15.7375504559       11.3761415345
  H         7.7749182820       14.9731223357       11.3752475662
  C         6.8498706988        4.8830689852        0.5244349640
  H         7.6159528517        4.0982159524        0.5253764265
  C        17.7491452959       15.7135269525        0.6001561671
  H        18.5169647131       14.9305325995        0.5958152865
  C        17.6750454453        4.9648147987       11.3663880100
  H        18.4556969968        4.1942185397       11.3825125417
  C        15.5447070925        7.0618135552       11.3345445163
  H        14.7598748001        7.8263968877       11.3113207197
  C        15.6563618893       17.8508915540        0.6070079085
  H        14.8888848831       18.6344824691        0.6116450403
  C         4.7603910893        7.0246030437        0.5234162122
  H         3.9950550013        7.8101300926        0.5223516634
  C         4.8391522252       17.8164802461       11.3800615180
  H         4.0506585497       18.5788804279       11.3819579545
  C         6.9030136839        7.0001851915       11.3356950487
  H         7.6794114060        7.7748628623       11.3314730084
  C         6.8995169159       17.8462998816        0.5695917708
  H         7.6685314717       18.6282600912        0.5785611469
  C        17.7465210936        7.0227733367        0.5477026340
  H        18.5140141988        7.8061707659        0.5547938167
  C        17.7725415973       17.8609963202       11.4082047342
  H        18.5471625231       18.6374529823       11.3991181104
 Kr        15.2021771744       11.2955421695       11.3023301530
