     409
 i =     176, E =    -5136.7010121331
  N         2.9592537471        5.2376915032       15.9694112029
  C         1.6384157522        5.4931019450       16.2396114270
  N        13.8014407874        5.0954177609        5.0956071024
  C        12.4785202669        5.3545675061        5.3550353605
  N        19.5866152610       17.5399539743       15.9848631764
  C        20.9035374475       17.2850752631       16.2695520242
  N         8.8151171829       17.5900317437        5.2071504351
  C        10.1317392235       17.2862790972        5.4450794879
  N        19.6455223547        5.1805919710        6.7369423324
  C        20.9629422078        5.4621596608        6.4782651305
  N         8.8152627628        5.2067002876       17.5904592807
  C        10.1318824417        5.4445340730       17.2865709571
  N         2.9438844221       17.5412807779        6.7766740862
  C         1.6293713843       17.2638593472        6.4998866182
  N        13.7405510068       17.6045133075       17.6045824346
  C        12.4155299833       17.3502257796       17.3503199013
  N        15.9866540851        2.9826590132        5.1317609661
  C        16.2483177621        1.6680240491        5.4181322210
  N        15.8382006347       13.8543412108       16.0187077766
  C        16.1152839072       12.5339618974       16.2762650504
  N        15.9270142699       19.7250786646       17.5692306882
  C        16.2015808660       21.0394539831       17.2887567748
  N        15.9067586261        8.8462143019        6.6897018254
  C        16.1829895845       10.1669330992        6.4361947415
  N         6.6230787159       19.6980218660        5.1975656134
  C         6.3470138441       21.0147804744        5.4547886243
  N         6.6134974616        8.9548334094       16.0337900019
  C         6.3343356510       10.2731787543       16.3053138707
  N         6.6558650785        3.0908454407       17.5382498731
  C         6.3714151383        1.7751945109       17.2821082538
  N         6.7022850509       13.8150397580        6.8446502363
  C         6.4393671955       12.4989622142        6.5473068102
  N         5.1181916956       15.9651194374        3.0914946289
  C         5.3668802652       16.2558697698        1.7735863140
  N         5.1443631243        5.2899983961       13.8369347352
  C         5.4201470944        5.5363660734       12.5164966597
  N        17.4619166103       15.9940539995       19.7086245486
  C        17.2051690481       16.2612444426       21.0294067869
  N        17.4717550509        5.1438953239        8.8580493150
  C        17.2037125072        5.4251997702       10.1732800439
  N         5.0775111775        6.7621254399       19.7064611048
  C         5.3399991247        6.4783048276       21.0219708855
  N         5.0637319794       17.5938036457        8.9435515608
  C         5.3219855317       17.3241089257       10.2637911489
  N        17.5200756701        6.7083491455        2.9925680038
  C        17.2494494318        6.4478661528        1.6730585938
  N        17.4211975987       17.5466557292       13.8483201545
  C        17.1491025273       17.2734441464       12.5324426844
  N         5.0791958305        3.0211643922        6.7226568994
  C         5.3397545511        1.7007163126        6.4592132596
  N         5.0411072246       13.9034965283       17.6287783084
  C         5.3092218771       12.5878769650       17.3432400172
  N        17.4876859884       19.6739252134        6.7558994655
  C        17.2330479386       20.9918005476        6.4716568812
  N        17.4563042148        8.8964715601       17.5151955118
  C        17.1656448626       10.2121337087       17.2589589681
  N         5.0484466302       19.7749027397       16.0550771918
  C         5.3345522863       21.0932979810       16.3022117413
  N         5.1421641848        8.8851021542        5.1707859037
  C         5.4165228116       10.1957766905        5.4721797430
  N        17.4900645619        3.0275063703       15.9696215331
  C        17.2187088122        1.7110806154       16.2479538794
  N        17.4890710531       13.8117395123        5.1830788405
  C        17.2143999645       12.4936606575        5.4451101524
  N         2.8995117873       16.0545223963       17.6103947453
  C         1.5826828368       16.3037298863       17.3193091064
  N        13.7651710951       15.9321750333        6.6743656972
  C        12.4495002878       16.2125050315        6.4039857735
  N        19.6398406314       15.9644760048        5.1983966198
  C        20.9561845255       16.2371992348        5.4750392020
  N         8.7514250389       16.1000131275       16.1001783268
  C        10.0732013234       16.3596109865       16.3597782767
  N        19.6298577882        6.7542550379       17.5212558361
  C        20.9488359780        6.4884233710       17.2554537282
  N         8.8344072588        6.6288919110        6.6293860406
  C        10.1505111583        6.3583806870        6.3591546333
  N         2.9615340373        6.7583090715        5.2027550232
  C         1.6438793013        6.4885164088        5.4732901717
  N        13.7652496767        6.6739294651       15.9322942313
  C        12.4496035794        6.4033973386       16.2125967935
  N        15.9522187267        5.1816722120       19.6743614615
  C        16.2311173734        5.4426842251       20.9906063643
  N        15.8725671478       15.9867302079        8.8887616971
  C        16.1316872648       16.2614926881       10.2093665914
  N        15.9443956370       17.5351174221        3.0377609803
  C        16.2110316130       17.2713767015        1.7192011867
  N        15.9342643456        6.7394189899       13.8075423874
  C        16.1980313218        6.4598373018       12.4899741718
  N         6.6116653632        5.1433593252        3.0022020617
  C         6.3413580207        5.4298159292        1.6901395981
  N         6.5940080362       16.0714725568       13.9192691917
  C         6.3221795629       16.3254276218       12.5980145993
  N         6.5933169209       17.6231546177       19.7817078348
  C         6.3418387595       17.3264947798       21.0970731061
  N         6.7190732400        6.7043305328        8.8477218185
  C         6.4450248895        6.4765346338       10.1726449720
  N        19.6297886357       17.5210443118        6.7543081597
  C        20.9487732261       17.2553148328        6.4884361005
  N         8.7741584462       17.6547700081       17.6547496331
  C        10.0899392956       17.3753516619       17.3754144941
  N         2.9616852924        5.2024809391        6.7589709084
  C         1.6439416189        5.4728406733        6.4891672136
  N        13.7753326995        5.1705655639       17.5382986286
  C        12.4550243420        5.4247340037       17.2629473147
  N         2.8994976114       17.6103979016       16.0544942742
  C         1.5826719928       17.3193039463       16.3037273802
  N        13.7751730319       17.5379569736        5.1707537324
  C        12.4548747992       17.2626970722        5.4251384531
  N        19.6398959789        5.1983875175       15.9646347148
  C        20.9562450638        5.4750675531       16.2372943280
  N         8.8316359702        5.0752785184        5.0752682150
  C        10.1524423829        5.3429681111        5.3433778970
  N         6.5932546095       19.7817732804       17.6230940836
  C         6.3417516531       21.0971301018       17.3264251483
  N         6.7177220302        8.8476720474        6.7028172515
  C         6.4437513114       10.1725810769        6.4752261494
  N         6.6118718239        3.0022243102        5.1434549929
  C         6.3415064310        1.6901508318        5.4299084883
  N         6.5939079782       13.9192563809       16.0713613459
  C         6.3219500947       12.5980446089       16.3253806285
  N        15.9444772041        3.0376642835       17.5353286367
  C        16.2110651010        1.7191123106       17.2715270999
  N        15.9341282168       13.8073441420        6.7394883925
  C        16.1978794223       12.4897772344        6.4599113763
  N        15.9520792493       19.6740979318        5.1817868492
  C        16.2310003755       20.9903459344        5.4427811186
  N        15.8725455923        8.8886122718       15.9869997410
  C        16.1316880940       10.2092308112       16.2616888071
  N        17.4877661832        6.7558459576       19.6742060875
  C        17.2331294578        6.4715928189       20.9920801993
  N        17.4562654345       17.5149835476        8.8965667679
  C        17.1656108198       17.2587945393       10.2122395612
  N         5.0786377247        6.7222452305        3.0210793039
  C         5.3394341848        6.4589563224        1.7006738735
  N         5.0411010190       17.6287815221       13.9033314523
  C         5.3093672677       17.3432135763       12.5877386305
  N        17.4899870087       15.9694058641        3.0275767194
  C        17.2186756294       16.2478031065        1.7111544478
  N        17.4891231149        5.1829463670       13.8119679367
  C        17.2144918233        5.4449789148       12.4938816322
  N         5.0484656567       16.0551926138       19.7748507659
  C         5.3345981074       16.3023233140       21.0932338812
  N         5.1436200240        5.1720483552        8.8850050259
  C         5.4178862020        5.4733739328       10.1957354275
  N        17.4619003769       19.7085595940       15.9941278951
  C        17.2051589512       21.0293383492       16.2613310094
  N        17.4717042466        8.8578211069        5.1442326752
  C        17.2036038674       10.1730640378        5.4254151110
  N         5.1182482318        3.0916494927       15.9649252073
  C         5.3668400664        1.7736930297       16.2556927722
  N         5.1435713353       13.8370398299        5.2892223971
  C         5.4191412416       12.5165261544        5.5354486021
  N        17.5200034414        2.9922493722        6.7084814518
  C        17.2493659526        1.6727625219        6.4479566655
  N        17.4212444082       13.8482177797       17.5467331108
  C        17.1491493424       12.5323346032       17.2735479915
  N         5.0775802605       19.7064620905        6.7622393857
  C         5.3401032732       21.0219714018        6.4784253527
  N         5.0634908218        8.9437144539       17.5941851256
  C         5.3217060565       10.2639333165       17.3243247052
  N        19.6455423466        6.7364949965        5.1809966344
  C        20.9629411204        6.4777782236        5.4625793720
  N         8.8080718595        6.7141434632       15.9890630943
  C        10.1275802728        6.4261246851       16.2378282042
  N         2.9439280421        6.7767423988       17.5413411710
  C         1.6294284964        6.4999219496       17.2639045694
  N        13.7809177978        6.6510294932        6.6517164781
  C        12.4684972296        6.3698080615        6.3706495126
  N         2.9591576153       15.9695511452        5.2373967563
  C         1.6383445302       16.2396722506        5.4929594622
  N        13.7061137232       16.0483582954       16.0485250632
  C        12.3945525466       16.3346171570       16.3347825575
  N        19.5866326827       15.9847987273       17.5400053879
  C        20.9035490142       16.2695078317       17.2851130096
  N         8.8079692797       15.9887997277        6.7148032388
  C        10.1274702529       16.2376759248        6.4268249509
  N         6.6559696262       17.5382504951        3.0908188112
  C         6.3715419333       17.2821887198        1.7751400622
  N         6.7030694747        6.8454781670       13.8152571604
  C         6.4403533189        6.5482727266       12.4991395252
  N         6.6230506896        5.1974790729       19.6980548586
  C         6.3469606215        5.4547198340       21.0148040244
  N         6.6138290172       16.0334256752        8.9548058349
  C         6.3346693854       16.3051430406       10.2731281710
  N        15.9270251127       17.5691589204       19.7251566465
  C        16.2015899346       17.2886697326       21.0395325698
  N        15.9070021172        6.6895885363        8.8464005472
  C        16.1832071975        6.4360915904       10.1671230488
  N        15.9867423023        5.1315945132        2.9829019568
  C        16.2484177967        5.4180170949        1.6682809823
  N        15.8381693294       16.0185984405       13.8544777339
  C        16.1152535874       16.2761407155       12.5340947609
 Zn        14.5445907102       14.7454501526       14.7456528111
 Br        13.2459879864       13.4237840732       13.4239869272
 Zn        14.7029538799        3.8192943667        3.8194543403
 Br        13.4023970383        2.4974196156        2.4975231927
 Zn         3.8450644250       14.6698616939        3.9742189922
 Br         2.5484011413       13.3316570854        2.6656364820
 Zn         3.8454086092        3.9750791968       14.6696031300
 Br         2.5490221210        2.6664178395       13.3311824867
 Zn         7.9560726961        8.1019267957       14.7869750821
 Br         9.4667552980        9.5855752488       13.9654257133
 Zn         7.9413681925       18.8625272749        3.9170563921
 Br         9.2441727163       20.1710412276        2.5887307904
 Zn        18.7859581861        8.0113699471        3.8687237499
 Br        20.1040710180        9.3355657175        2.5665522782
 Zn        18.7280935348       18.8309979956       14.6930453513
 Br        20.0484545761       20.1371194667       13.3749514161
 Zn         7.9556507336       14.7855473638        8.1015828484
 Br         9.4647772774       13.9588728558        9.5838511116
 Zn         7.9412460012        3.9166455605       18.8628278772
 Br         9.2439743733        2.5883207283       20.1713568350
 Zn        18.7281210734       14.6929608902       18.8310491135
 Br        20.0485107109       13.3748977874       20.1371739254
 Zn        18.7858642055        3.8680660690        8.0115756078
 Br        20.1041970112        2.5661274495        9.3357576600
 Zn        14.6105626401        7.9561560230        7.9563828500
 Br        13.3129036646        9.2779142419        9.2786758374
 Zn        14.6448564890       18.8818228406       18.8818841487
 Br        13.3578234144       20.2105728556       20.2106410851
 Zn         3.7784632463        8.0582907035       18.8676014672
 Br         2.4468454810        9.3407802233       20.1959375147
 Zn         3.7785878452       18.8673400882        8.0583032203
 Br         2.4470980620       20.1957859715        9.3408490633
 Zn        14.6156137167       14.6701278373        8.0049210546
 Br        13.3295583772       13.3291439950        9.3168956772
 Zn        14.6522164209        3.8932229297       18.8287726792
 Br        13.3393714486        2.5821824634       20.1493487705
 Zn         3.7481288536       14.7675013228       18.9180291605
 Br         2.4376487755       13.4501848114       20.2338960170
 Zn         3.8224010161        3.8966239617        8.0416686552
 Br         2.5045228449        2.5971075263        9.3651528473
 Zn         8.0135217405        7.9245495852        7.9223262740
 Br         9.4341450275        9.1794672872        9.1678984452
 Zn         7.8851074633       18.9351947173       18.9351349022
 Br         9.1840743997       20.2564159602       20.2564000355
 Zn        18.7661627823        8.0551656463       18.8047884991
 Br        20.0735096414        9.3736375826       20.1215960151
 Zn        18.7661211701       18.8044921279        8.0552136168
 Br        20.0734445594       20.1214051166        9.3736288765
 Zn        14.6156768110        8.0047044340       14.6703883044
 Br        13.3296091251        9.3165252539       13.3293697403
 Zn        14.6520780731       18.8285204893        3.8933495709
 Br        13.3392443549       20.1491056096        2.5823191503
 Zn         3.8208166935        8.0407897124        3.8962043280
 Br         2.5030388166        9.3639934348        2.5963220563
 Zn         3.7481008308       18.9180020306       14.7674200021
 Br         2.4376035700       20.2339830625       13.4502241906
 Zn         7.8891600963       14.8150156515       14.8150061601
 Br         9.2818414900       13.5484307209       13.5471595928
 Zn         7.9008199388        3.8110404074        3.8109543187
 Br         9.1573774235        2.4702213892        2.4702528816
 Zn        18.7803953297       14.6759735023        3.8941763200
 Br        20.1099879056       13.3801706560        2.5756471708
 Zn        18.7804497735        3.8941184475       14.6761958568
 Br        20.1100942570        2.5755993919       13.3804179180
 Zn         5.8879737422        6.0182358610       16.7798817630
 Zn        16.6572360006       16.7802292253       16.7802979631
 Zn        16.7198025717        5.9125502653        5.9128635129
 Zn         5.8878840912       16.7796321285        6.0182058632
 Zn         5.8906887045        5.9159268288        5.9155717032
 Zn        16.7076525166       16.7384574575        5.9601471157
 Zn         5.8251838259       16.8608388268       16.8607459996
 Zn        16.7077205231        5.9600723032       16.7388791394
  N         3.6986251183        6.0130131723       16.7570898213
  N        14.5376048678        5.8785813075        5.8788950239
  N        18.8397613548       16.7551084276       16.7551751541
  N         8.0660073519       16.8052115128        5.9761924984
  N        18.8991877702        5.9520196585        5.9524480493
  N         8.0661346024        5.9757036854       16.8056326767
  N         3.6985536780       16.7571356303        6.0127873288
  N        14.4698108719       16.8180389523       16.8181491753
  N        16.7548795775        3.7342229785        5.9136643546
  N        16.6289757852       14.5977217953       16.7868385092
  N        16.6894940664       18.9697589131       16.7847012770
  N        16.6878669170        8.1050438165        5.9098717958
  N         5.8545805855       18.9553148684        5.9875205255
  N         5.8451314609        8.2032813894       16.8145840396
  N         5.8961433810        3.8380119908       16.7438126159
  N         5.9185494208       14.5732732859        6.0775927094
  N         5.8961271445       16.7438769244        3.8379343092
  N         5.9192227385        6.0783107834       14.5733456330
  N        16.6895072884       16.7846348925       18.9698315598
  N        16.6879921948        5.9096077408        8.1052586658
  N         5.8545463613        5.9874095058       18.9553405075
  N         5.8453765001       16.8141191237        8.2031934772
  N        16.7549554008        5.9134895351        3.7344962946
  N        16.6289402969       16.7867557938       14.5978365609
  N         5.8486876348        3.7573526338        5.9267918504
  N         5.8193771873       14.6587368999       16.8585820745
  N        16.7133003411       18.9269243243        5.9745179071
  N        16.6737964397        8.1461061364       16.7456931456
  N         5.8116608278       19.0325494023       16.8514654265
  N         5.9299087943        8.1192248405        5.9184753708
  N        16.7180530902        3.7791687342       16.7491616185
  N        16.7133686457       14.5560387986        5.9653987551
  N         3.6459722022       16.8434269269       16.8434068246
  N        14.5172170549       16.7350654749        5.9282818970
  N        18.8884852223       16.7408535453        5.9738392006
  N         8.0160661425       16.8817576564       16.8817980064
  N        18.8885505782        5.9737826943       16.7410708331
  N         8.0858715234        5.8541499458        5.8541553590
  N         3.7081802447        5.9790534276        5.9794659700
  N        14.5173357334        5.9280626189       16.7353472123
  N        16.7134179074        5.9744336824       18.9272000161
  N        16.6737886979       16.7454222806        8.1462244546
  N        16.7179499984       16.7489118997        3.7792511268
  N        16.7134483046        5.9652945004       14.5562594495
  N         5.8482321503        5.9264857726        3.7572875498
  N         5.8193571840       16.8586510947       14.6586556023
  N         5.8116885328       16.8515543696       19.0324878604
  N         5.9312783755        5.9198843610        8.1192127027
  C        11.2226899804       15.7983117953       15.7985287211
  H        11.2026063916       15.0230176506       15.0232635563
  C        11.3207509333        4.7989635015        4.7992390691
  H        11.3316904108        4.0236439153        4.0235698384
  C         0.4820726256       15.6863701492        4.9368208527
  H         0.4883523567       14.9072584634        4.1650655480
  C         0.4821321729        4.9369328976       15.6863587811
  H         0.4883838597        4.1652075648       14.9072152018
  C        11.2881886642        6.9367848416       15.6515357647
  H        11.2865691901        7.6898830917       14.8553630290
  C        11.2947205072       17.8399712470        4.9017684139
  H        11.2967828255       18.6424077188        4.1542038955
  C         0.4833113846        7.0342897163        4.9195052547
  H         0.4827741644        7.8089104266        4.1430820047
  C         0.4232168245       17.8514066300       15.7356542385
  H         0.4230552740       18.6269273111       14.9601225527
  C        11.2881158628       15.6515412339        6.9375949007
  H        11.2865154030       14.8554224654        7.6907626396
  C        11.2949063324        4.9013574490       17.8403041189
  H        11.2970375635        4.1539285587       18.6428625032
  C         0.4232455463       15.7356307273       17.8514270712
  H         0.4231089653       14.9600942814       18.6269432682
  C         0.4833040566        4.9191412955        7.0349226136
  H         0.4826686766        4.1428259864        7.8096238694
  C        11.3047712896        6.9128468284        6.9139498104
  H        11.2946352255        7.6879627332        7.6891152005
  C        11.2644065246       17.9121067312       17.9121462962
  H        11.2829795858       18.6875212545       18.6875007340
  C         0.4644299508        7.0401921859       17.8129761450
  H         0.4578300158        7.8108925469       18.5933548543
  C         0.4643609927       17.8128507439        7.0402223114
  H         0.4577356420       18.5931825048        7.8109666254
  C        15.5633201811       11.3710157320       15.7306495649
  H        14.7756987291       11.3708502841       14.9675369898
  C        15.6978794112        0.5073549986        4.8720794895
  H        14.9329264993        0.5047130929        4.0861065111
  C         4.8646017708       11.3709577943        4.9597920726
  H         4.0836724593       11.3961025589        4.1898197730
  C         4.8063795878        0.6102251122       15.7233064866
  H         4.0378575900        0.6040598898       14.9409753177
  C        15.6397401053       11.3262149116        6.9965223446
  H        14.8628749649       11.3243419422        7.7706784536
  C        15.6625592111        0.5654054636       17.8360324269
  H        14.8947029664        0.5747146913       18.6191381097
  C         4.7669231491       11.4187305234       17.8834527401
  H         3.9956647422       11.4076431080       18.6629987132
  C         4.7944086314        0.5458788274        7.0246563419
  H         4.0270193487        0.5518631420        7.8082018121
  C         6.8728491053       11.4437301901       15.7634075337
  H         7.6544079315       11.4539494165       14.9948014593
  C         6.8875562454        0.5276866849        4.8844168364
  H         7.6541105587        0.5211920713        4.0999011717
  C        17.7605181041       11.3355968816        4.8875675263
  H        18.5385990123       11.3382713294        4.1146524939
  C        17.7568749760        0.5440804520       15.6999803253
  H        18.5254230463        0.5347611536       14.9176886999
  C         6.9950570737       11.3203822423        7.0547878146
  H         7.7795471271       11.2850039744        7.8190017801
  C         6.9016059788        0.6194110997       17.8591809013
  H         7.6695947055        0.6254541834       18.6422915726
  C        17.7161592545       11.3727535906       17.8062996873
  H        18.5057675820       11.3738093040       18.5675697462
  C        17.7837573875        0.5142011193        7.0175355822
  H        18.5478735867        0.5171551340        7.8042379161
  C        15.5633150216       15.7304816369       11.3711589731
  H        14.7757117293       14.9673520328       11.3709944453
  C        15.6979997782        4.8719656118        0.5076030719
  H        14.9330625752        4.0859775482        0.5049370206
  C         4.8063884694       15.7234638059        0.6101492541
  H         4.0378345998       14.9411635814        0.6040249455
  C         4.8658079074        4.9608276535       11.3707714917
  H         4.0848694443        4.1908377828       11.3957011625
  C         6.8732123710       15.7634197300       11.4437518694
  H         7.6547747638       14.9948101242       11.4540902825
  C         6.8875353768        4.8843904655        0.5277035965
  H         7.6541499750        4.0999407923        0.5212291373
  C        17.7568692692       15.6998711566        0.5441460123
  H        18.5254191914       14.9175808136        0.5348185154
  C        17.7605828336        4.8873632037       11.3358391069
  H        18.5386132612        4.1144033681       11.3385507673
  C        15.6399746594        6.9964785585       11.3263885006
  H        14.8631541427        7.7706825639       11.3244662877
  C        15.6625560382       17.8359191004        0.5654940857
  H        14.8947011980       18.6190247402        0.5748110064
  C         4.7941563080        7.0244362855        0.5458334136
  H         4.0266984219        7.8079264203        0.5518031194
  C         4.7671202552       17.8833132581       11.4185192773
  H         3.9958132223       18.6628112015       11.4073271364
  C         6.9961142917        7.0559469611       11.3206052736
  H         7.7803941005        7.8203684577       11.2855314802
  C         6.9017529124       17.8592218147        0.6193465412
  H         7.6697837356       18.6422876683        0.6253751541
  C        17.7838182377        7.0174753630        0.5144940148
  H        18.5479103541        7.8042014958        0.5174465561
  C        17.7161044143       17.8061830251       11.3728483572
  H        18.5056987538       18.5674689310       11.3738885382
 Kr        10.9131044888       11.3466483297       11.3498745609
