     409
 i =     176, E =    -5136.7096472707
  N         2.9455092691        5.2099443287       16.0101986589
  C         1.6269425277        5.4753548289       16.2779238693
  N        13.7684020351        5.1621773537        5.1622136684
  C        12.4497838725        5.4320780429        5.4321024311
  N        19.6120073435       17.5635310697       16.0084066971
  C        20.9292976667       17.3001644666       16.2845973657
  N         8.8063295450       17.5888070805        5.2002738351
  C        10.1240108238       17.3075283608        5.4596866342
  N        19.6308799090        5.1871620823        6.7426029900
  C        20.9481241457        5.4632108203        6.4788160620
  N         8.8062570312        5.2002835280       17.5887956467
  C        10.1239433209        5.4596905197       17.3075235670
  N         2.9383973517       17.5682050631        6.7630372385
  C         1.6224270012       17.2948181108        6.4897675555
  N        13.7486698213       17.5860543214       17.5860785012
  C        12.4292356583       17.3195579139       17.3195702531
  N        15.9368992490        3.0223759113        5.1718048572
  C        16.2058271977        1.7053037817        5.4447365608
  N        15.8952767534       13.8582659412       16.0220814716
  C        16.1665467742       12.5388991457       16.2881023086
  N        15.9163267898       19.7218537067       17.5706596722
  C        16.1890864646       21.0382541722       17.2984973832
  N        15.9217777383        8.8853546900        6.7245166910
  C        16.1920893278       10.2044329039        6.4574434698
  N         6.6347150378       19.7248415931        5.1957964538
  C         6.3604889228       21.0419304927        5.4611756159
  N         6.6397771061        8.9217985109       16.0364115320
  C         6.3655798313       10.2399240141       16.3045955369
  N         6.6481548386        3.0584795968       17.5703768936
  C         6.3733573754        1.7415879632       17.3040017444
  N         6.6552421047       13.8598058273        6.7720216352
  C         6.3895242454       12.5411642114        6.4960099317
  N         5.0963921689       16.0111226379        3.0597947920
  C         5.3603441837       16.2858648175        1.7420754862
  N         5.0991388960        5.2164983227       13.8618729180
  C         5.3726826813        5.4810908237       12.5440468042
  N        17.4673617291       16.0102853073       19.7166416587
  C        17.2020427497       16.2800881377       21.0350509444
  N        17.4771302938        5.1694657106        8.8879509123
  C        17.2076809981        5.4415283328       10.2053882998
  N         5.0808863572        6.7535513773       19.7259640135
  C         5.3468015891        6.4787869512       21.0430061768
  N         5.0823115571       17.5900150397        8.9190652146
  C         5.3490586498       17.3197099923       10.2371891315
  N        17.4882707836        6.7311703102        3.0245409416
  C        17.2183534091        6.4634109860        1.7064764323
  N        17.4606672237       17.5681649806       13.8559169711
  C        17.1888403047       17.2974742108       12.5387686003
  N         5.0792488141        3.0409725260        6.7466376880
  C         5.3457048805        1.7231013560        6.4755837325
  N         5.0705488773       13.8755889276       17.5954474566
  C         5.3426400022       12.5588851808       17.3226968994
  N        17.4791611643       19.7086031999        6.7461095153
  C        17.2140348529       21.0259124386        6.4709615071
  N        17.4717839630        8.9006524079       17.5598713514
  C        17.1939473040       10.2172161027       17.2937089275
  N         5.0758556932       19.7440895904       16.0311048869
  C         5.3504420302       21.0615230959       16.2961106378
  N         5.1024574922        8.9066144686        5.1876408171
  C         5.3741462776       10.2224459099        5.4657574421
  N        17.4799251421        3.0324188720       16.0064916219
  C        17.2079694557        1.7156542147       16.2778188840
  N        17.4849959416       13.8444733043        5.1770772873
  C        17.2124008867       12.5269507475        5.4453672437
  N         2.9262725581       16.0329794070       17.5888567204
  C         1.6091752574       16.2967459520       17.3124260217
  N        13.7645729647       15.9954466990        6.7182139694
  C        12.4462262434       16.2703516494        6.4540208202
  N        19.6305956031       16.0035498619        5.1918523788
  C        20.9468184509       16.2743241743        5.4665069825
  N         8.7823331367       16.0442491574       16.0442379987
  C        10.1017233871       16.3106897288       16.3106864272
  N        19.6245832375        6.7494424066       17.5574792261
  C        20.9425183971        6.4826475793       17.2895453370
  N         8.8125958333        6.7222080907        6.7222000105
  C        10.1294332057        6.4499848523        6.4499890185
  N         2.9448392939        6.7598152272        5.2039412306
  C         1.6277703585        6.4872030786        5.4715882765
  N        13.7645147524        6.7182039412       15.9954600639
  C        12.4461690909        6.4540155388       16.2703572400
  N        15.9288249773        5.1851747683       19.7087546155
  C        16.2020059538        5.4517522221       21.0256376874
  N        15.9083014940       16.0129930275        8.8955084278
  C        16.1723648690       16.2838780294       10.2152276508
  N        15.9250756984       17.5633448654        3.0360607764
  C        16.1936059071       17.2947740303        1.7184608437
  N        15.9315249280        6.7340631335       13.8454723539
  C        16.1975469551        6.4619944055       12.5270464021
  N         6.6293894253        5.1851476844        3.0374511202
  C         6.3579469225        5.4565011755        1.7212040822
  N         6.6248795244       16.0401894659       13.8818173149
  C         6.3580531867       16.3067962168       12.5623953452
  N         6.6275313892       17.5908329126       19.7443655972
  C         6.3635344366       17.3144984125       21.0615543495
  N         6.6634586844        6.7373061787        8.8963505912
  C         6.3929484050        6.4784769803       10.2168745307
  N        19.6246327221       17.5574425095        6.7494695253
  C        20.9425701022       17.2895300042        6.4826495909
  N         8.7894205892       17.5992880989       17.5992611099
  C        10.1064665198       17.3264260198       17.3264139440
  N         2.9448492724        5.2039520440        6.7598073781
  C         1.6277769832        5.4715899047        6.4872048960
  N        13.7640589000        5.1783568284       17.5659547352
  C        12.4462347851        5.4485304918       17.2961915159
  N         2.9262634020       17.5888812497       16.0329310896
  C         1.6091676765       17.3124464075       16.2967142421
  N        13.7641301593       17.5659415429        5.1783614709
  C        12.4463033052       17.2961856359        5.4485330785
  N        19.6305486565        5.1918412839       16.0035753285
  C        20.9467675544        5.4665131065       16.2743325479
  N         8.8071971389        5.1672738080        5.1672571780
  C        10.1266103288        5.4343353563        5.4343349143
  N         6.6275145306       19.7443965870       17.5907861559
  C         6.3634995068       21.0615822200       17.3144557729
  N         6.6634538471        8.8963695747        6.7372721392
  C         6.3929488239       10.2168960318        6.4784436946
  N         6.6293930113        3.0374790021        5.1851178169
  C         6.3579613884        1.7212279894        5.4564699947
  N         6.6248644199       13.8818434492       16.0401737395
  C         6.3580265227       12.5624262496       16.3067818301
  N        15.9250008576        3.0360418562       17.5633711218
  C        16.1935483874        1.7184437477       17.2948025010
  N        15.9315646307       13.8454461730        6.7340822446
  C        16.1975810146       12.5270175551        6.4620146100
  N        15.9288979625       19.7087206988        5.1852128302
  C        16.2020609178       21.0256029126        5.4518049865
  N        15.9082734150        8.8954764899       16.0130341217
  C        16.1723473029       10.2151923958       16.2839201865
  N        17.4791056292        6.7460535637       19.7086376394
  C        17.2139874913        6.4708994788       21.0259437530
  N        17.4718181070       17.5598214695        8.9006950782
  C        17.1939682561       17.2936641997       10.2172579197
  N         5.0792413247        6.7466631968        3.0409587803
  C         5.3456888234        6.4756140091        1.7230859270
  N         5.0705592608       17.5954575685       13.8755464488
  C         5.3426642553       17.3227081619       12.5588460030
  N        17.4799820415       16.0064524161        3.0324271458
  C        17.2080194868       16.2777827381        1.7156624939
  N        17.4849522683        5.1770561128       13.8445066502
  C        17.2123638394        5.4453454794       12.5269842245
  N         5.0758667669       16.0311606034       19.7440728691
  C         5.3504729532       16.2961581813       21.0615041040
  N         5.1024715283        5.1876669243        8.9065864904
  C         5.3741495049        5.4657870621       10.2224179183
  N        17.4673464202       19.7166310893       16.0103102047
  C        17.2020163254       21.0350405171       16.2801153200
  N        17.4771354306        8.8879151773        5.1694786779
  C        17.2076995611       10.2053531328        5.4415462418
  N         5.0963155240        3.0598184486       16.0110873898
  C         5.3602800603        1.7420987951       16.2858241311
  N         5.0991800494       13.8619056091        5.2164603892
  C         5.3727050000       12.5440764825        5.4810580187
  N        17.4882851937        3.0245138634        6.7312341214
  C        17.2183788589        1.7064466716        6.4634767093
  N        17.4606827858       13.8558780391       17.5682002733
  C        17.1888444565       12.5387290649       17.2975145503
  N         5.0809423634       19.7259789993        6.7535280874
  C         5.3468438042       21.0430211699        6.4787572955
  N         5.0822662275        8.9191016225       17.5900023234
  C         5.3490188907       10.2372268869       17.3196978718
  N        19.6308716141        6.7425642192        5.1871826695
  C        20.9481179436        6.4787909757        5.4632266661
  N         8.8050640865        6.7453127738       16.0230812606
  C        10.1236530681        6.4672650235       16.2835888922
  N         2.9383454578        6.7630830871       17.5681822684
  C         1.6223729727        6.4898021948       17.2948056145
  N        13.7694897306        6.7174560518        6.7174841739
  C        12.4511564901        6.4478601008        6.4478826732
  N         2.9455652242       16.0102343961        5.2098890843
  C         1.6269966959       16.2779444947        5.4753149732
  N        13.7410352006       16.0304124096       16.0304472259
  C        12.4240039731       16.3037271457       16.3037461641
  N        19.6120217877       16.0083935578       17.5635436988
  C        20.9293055547       16.2845985228       17.3001652643
  N         8.8051222040       16.0230910638        6.7453026435
  C        10.1237121484       16.2835944636        6.4672604447
  N         6.6482342844       17.5704066537        3.0584491755
  C         6.3734238382       17.3040381249        1.7415588110
  N         6.6552068102        6.7720554416       13.8597871799
  C         6.3895045620        6.4960419983       12.5411428399
  N         6.6346501886        5.1958139566       19.7248156123
  C         6.3604440472        5.4612013715       21.0419055425
  N         6.6398267800       16.0364282902        8.9217690607
  C         6.3656210581       16.3046108403       10.2398943639
  N        15.9163409508       17.5706333459       19.7218771680
  C        16.1891142096       17.2984710281       21.0382739617
  N        15.9217732417        6.7245050012        8.8853802163
  C        16.1920719874        6.4574271675       10.2044609865
  N        15.9368850020        5.1717377064        3.0224185340
  C        16.2058004566        5.4446712701        1.7053410639
  N        15.8952694001       16.0220373038       13.8583006063
  C        16.1665458164       16.2880586945       12.5389360391
 Zn        14.6082871844       14.7414099908       14.7414742017
 Br        13.2942740381       13.4318754523       13.4319075323
 Zn        14.6447909360        3.8771613251        3.8772378427
 Br        13.3335821728        2.5602295773        2.5602927623
 Zn         3.8061527715       14.7167006616        3.9208087769
 Br         2.4966501066       13.3969573799        2.6066948226
 Zn         3.8060803998        3.9208731170       14.7166714707
 Br         2.4965948107        2.6067581336       13.3969105782
 Zn         7.9362318726        8.0530899980       14.7565433303
 Br         9.2674712805        9.3872304783       13.4902516379
 Zn         7.9394805113       18.8740345990        3.9063802205
 Br         9.2471766770       20.1888037912        2.5870612960
 Zn        18.7747001827        8.0261410538        3.8865173164
 Br        20.0893616503        9.3417383298        2.5724834916
 Zn        18.7586739501       18.8573004200       14.7152671382
 Br        20.0736175026       20.1696788382       13.3997161075
 Zn         7.9362737815       14.7565428044        8.0530687642
 Br         9.2674816065       13.4902079679        9.3871967231
 Zn         7.9394034854        3.9063913929       18.8740148015
 Br         9.2470915694        2.5870660223       20.1887864370
 Zn        18.7586994525       14.7152505655       18.8573165255
 Br        20.0736367053       13.3996925412       20.1696937148
 Zn        18.7747091072        3.8865108097        8.0262066600
 Br        20.0893773822        2.5724718923        9.3417910848
 Zn        14.6362984620        8.0063551857        8.0063676594
 Br        13.3160087147        9.3135848903        9.3136004873
 Zn        14.6236530001       18.8735067856       18.8735320733
 Br        13.3218301313       20.1937338828       20.1937739339
 Zn         3.7880249163        8.0521331721       18.8743004228
 Br         2.4665738030        9.3555889587       20.1918221473
 Zn         3.7880590302       18.8743085922        8.0521005199
 Br         2.4666238121       20.1918460470        9.3555553362
 Zn        14.6391792476       14.7174977529        8.0114363156
 Br        13.3353657277       13.3979907419        9.3224050910
 Zn        14.6306251145        3.8934851023       18.8585193088
 Br        13.3198444633        2.5780571214       20.1754868577
 Zn         3.7821477385       14.7388660461       18.8847813462
 Br         2.4657811507       13.4288257500       20.2021118183
 Zn         3.7976813051        3.9029545041        8.0516562693
 Br         2.4805088368        2.5909930249        9.3642352454
 Zn         7.9516309308        8.0108713731        8.0108450525
 Br         9.2663671833        9.3211982540        9.3211062894
 Zn         7.9180254012       18.8866695289       18.8866298374
 Br         9.2321022112       20.2018229023       20.2017762508
 Zn        18.7676505802        8.0457989738       18.8479503590
 Br        20.0802152921        9.3571550352       20.1669530334
 Zn        18.7676897079       18.8478769001        8.0458513546
 Br        20.0802526127       20.1668942297        9.3571995769
 Zn        14.6391362767        8.0114254637       14.7175194716
 Br        13.3353490207        9.3224071123       13.3980047340
 Zn        14.6307458797       18.8584959385        3.8934971881
 Br        13.3199432777       20.1754622272        2.5780830114
 Zn         3.7976632405        8.0516718255        3.9029447881
 Br         2.4804877421        9.3642416052        2.5909752403
 Zn         3.7821462974       18.8847877361       14.7387834878
 Br         2.4657770346       20.2021281726       13.4287599345
 Zn         7.9091478077       14.7599440485       14.7599337800
 Br         9.2302287596       13.4521631638       13.4521460491
 Zn         7.9227907467        3.8863615534        3.8863339269
 Br         9.2204517179        2.5631320787        2.5631007872
 Zn        18.7754691097       14.7143352956        3.8910866275
 Br        20.0958324810       13.4081522593        2.5739831743
 Zn        18.7754303341        3.8910693547       14.7143649211
 Br        20.0957869739        2.5739504736       13.4081933937
 Zn         5.8721140006        5.9921738607       16.7996502069
 Zn        16.6769053801       16.7876226463       16.7876556562
 Zn        16.7067030861        5.9509634682        5.9509868832
 Zn         5.8722309228       16.7996959969        5.9921454087
 Zn         5.8718092270        5.9614671414        5.9614439878
 Zn        16.7043116499       16.7776960276        5.9586421369
 Zn         5.8478874623       16.8194746317       16.8194487475
 Zn        16.7042555725        5.9586193152       16.7777229697
  N         3.6886909294        5.9884887371       16.7905682273
  N        14.5154726613        5.9396865377        5.9397228441
  N        18.8649241483       16.7826228686       16.7826382270
  N         8.0591134829       16.8113778613        5.9781450418
  N        18.8843694322        5.9609662244        5.9609993234
  N         8.0590460425        5.9781568317       16.8113653816
  N         3.6887476055       16.7906031596        5.9884308865
  N        14.4913534599       16.8062733147       16.8063101105
  N        16.7126701000        3.7699547233        5.9503155427
  N        16.6780518749       14.6034191455       16.7961747538
  N        16.6898203791       18.9724475578       16.7909224891
  N        16.6995106006        8.1399966948        5.9456560466
  N         5.8602840112       18.9787892769        5.9775528497
  N         5.8630137680        8.1740704210       16.8138011324
  N         5.8750218364        3.8060790162       16.7888072176
  N         5.8750408649       14.6076185087        5.9967991411
  N         5.8751057328       16.7888360804        3.8060515917
  N         5.8749936840        5.9968385463       14.6075921326
  N        16.6898288469       16.7908972622       18.9724648022
  N        16.6995121411        5.9456435642        8.1400275282
  N         5.8602130991        5.9775721145       18.9787662765
  N         5.8630678465       16.8138139533        8.1740381483
  N        16.7126626411        5.9502479543        3.7699881320
  N        16.6780388831       16.7961384213       14.6034560821
  N         5.8559580806        3.7856885844        5.9656788192
  N         5.8466433066       14.6257751845       16.8193922516
  N        16.7016818181       18.9616870528        5.9677011134
  N        16.6940329998        8.1510412379       16.7848485479
  N         5.8488834639       18.9977445789       16.8139606572
  N         5.8826462182        8.1545070391        5.9578467615
  N        16.7033545539        3.7808106928       16.7841552953
  N        16.7096303497       14.5917228318        5.9565642889
  N         3.6726180513       16.8142695817       16.8142259790
  N        14.5113770571       16.7795564752        5.9472948378
  N        18.8810214117       16.7798403301        5.9686388531
  N         8.0390571149       16.8232264969       16.8232017377
  N        18.8809722967        5.9686094670       16.7798832620
  N         8.0628064475        5.9462340086        5.9462144804
  N         3.6914931558        5.9825289215        5.9825159029
  N        14.5113140103        5.9472820949       16.7795773431
  N        16.7016101634        5.9676588599       18.9617212406
  N        16.6940713251       16.7848029186        8.1510771463
  N        16.7034263942       16.7841228697        3.7808258928
  N        16.7095863918        5.9565437238       14.5917523911
  N         5.8559587493        5.9657096932        3.7856683511
  N         5.8466511447       16.8194031476       14.6257409771
  N         5.8488870228       16.8140150136       18.9977206518
  N         5.8826579500        5.9578759863        8.1544826923
  C        11.2597443961       15.7577790120       15.7577900685
  H        11.2544437962       14.9822988750       14.9823137155
  C        11.2873177332        4.8835580886        4.8835689397
  H        11.2860473937        4.1080106626        4.1080180513
  C         0.4698600899       15.7256806837        4.9213335267
  H         0.4739808779       14.9496597007        4.1462880978
  C         0.4698118627        4.9213602578       15.7256690622
  H         0.4739344809        4.1463189230       14.9496436990
  C        11.2848343828        7.0033716972       15.7209356107
  H        11.2842863597        7.7717413696       14.9384279870
  C        11.2851914640       17.8557739652        4.9090431076
  H        11.2854112644       18.6387277087        4.1410309268
  C         0.4677093636        7.0334965798        4.9177046426
  H         0.4675148447        7.8085380454        4.1416655148
  C         0.4490979252       17.8563924246       15.7407076363
  H         0.4491016550       18.6321005112       14.9653442472
  C        11.2848911662       15.7209363949        7.0033735157
  H        11.2843343816       14.9384292241        7.7717441729
  C        11.2851161232        4.9090437354       17.8557746618
  H        11.2853318449        4.1410317540       18.6387290018
  C         0.4491177125       15.7407267693       17.8563858085
  H         0.4491408608       14.9653668177       18.6320972835
  C         0.4677246983        4.9177007613        7.0335128864
  H         0.4675453205        4.1416655685        7.8085581417
  C        11.2914664867        6.9982903663        6.9983062077
  H        11.2928977302        7.7737359358        7.7737532136
  C        11.2710638092       17.8724986736       17.8724950000
  H        11.2757149443       18.6480163920       18.6480087109
  C         0.4596884975        7.0359130332       17.8424194864
  H         0.4552288037        7.8106313221       18.6187351354
  C         0.4597391453       17.8424160168        7.0358982394
  H         0.4552825084       18.6187285699        7.8106196171
  C        15.6159685498       11.3767179688       15.7406749709
  H        14.8358775902       11.3759791250       14.9698484164
  C        15.6563906973        0.5449804341        4.8957906667
  H        14.8837881353        0.5436905806        4.1172997629
  C         4.8230433585       11.3863950637        4.9251986582
  H         4.0459375726       11.3916554763        4.1512472282
  C         4.8068832981        0.5817883986       15.7396006966
  H         4.0330921193        0.5813086572       14.9623591799
  C        15.6453663007       11.3656698842        7.0094344655
  H        14.8701376716       11.3665026407        7.7851992426
  C        15.6428730239        0.5600932301       17.8479402623
  H        14.8693000608        0.5629608400       18.6254018782
  C         4.7959168128       11.3959014768       17.8705592234
  H         4.0206617447       11.3927240680       18.6463712100
  C         4.7968316316        0.5635598083        7.0278637233
  H         4.0231767475        0.5640729183        7.8052607137
  C         6.9109062799       11.4034364510       15.7557827692
  H         7.6869581236       11.4066837017       14.9808919143
  C         6.9067412283        0.5609779173        4.9062075781
  H         7.6796509547        0.5603669144        4.1280384404
  C        17.7591706333       11.3658140223        4.8933893674
  H        18.5343935360       11.3652175520        4.1175707348
  C        17.7539179446        0.5533376657       15.7280515431
  H        18.5279437855        0.5506075578       14.9510107339
  C         6.9417987769       11.3759057261        7.0354093317
  H         7.7188739777       11.3692683492        7.8091959278
  C         6.9168763269        0.5817595222       17.8606189988
  H         7.6900854389        0.5821978091       18.6384837246
  C        17.7439265489       11.3783508802       17.8419704910
  H        18.5244396121       11.3787559467       18.6124948831
  C        17.7645799832        0.5471650850        7.0187628953
  H        18.5373551962        0.5483791873        7.7969839887
  C        15.6159772731       15.7406326881       11.3767467754
  H        14.8358861910       14.9698062644       11.3760014801
  C        15.6563487518        4.8957332907        0.5450221509
  H        14.8837438805        4.1172454443        0.5437377805
  C         4.8069280331       15.7396449876        0.5817719980
  H         4.0331342102       14.9624061666        0.5813025728
  C         4.8230349112        4.9252293627       11.3863620439
  H         4.0459283449        4.1512785915       11.3916135983
  C         6.9109423805       15.7557986438       11.4034104381
  H         7.6869949672       14.9809088118       11.4066626014
  C         6.9067117350        4.9062373813        0.5609465888
  H         7.6796211643        4.1280675490        0.5603262818
  C        17.7539546361       15.7280174243        0.5533429224
  H        18.5279784046       14.9509741766        0.5506005741
  C        17.7591411259        4.8933665956       11.3658494471
  H        18.5343617058        4.1175456577       11.3652584636
  C        15.6453410330        7.0094167817       11.3656930630
  H        14.8701149969        7.7851834645       11.3665217891
  C        15.6429174303       17.8479155812        0.5601209717
  H        14.8693470691       18.6253801557        0.5630006399
  C         4.7968045267        7.0278949208        0.5635483802
  H         4.0231499665        7.8052930485        0.5640715732
  C         4.7959478325       17.8705712321       11.3958613013
  H         4.0206927982       18.6463827628       11.3926784022
  C         6.9417891665        7.0354423719       11.3758899607
  H         7.7188630284        7.8092309249       11.3692598516
  C         6.9169306627       17.8606566207        0.5817239825
  H         7.6901428044       18.6385176655        0.5821532434
  C        17.7645468870        7.0186968156        0.5471940223
  H        18.5373241557        7.7969157256        0.5484006041
  C        17.7439350915       17.8419279996       11.3783941776
  H        18.5244491138       18.6124522935       11.3788059378
 Kr        11.2754382925       11.3794237077       11.3794339667
