     409
 i =     176, E =    -5136.7150450000
  N         2.8992186964        5.1981160427       16.0041179404
  C         1.5821685716        5.4724702509       16.2736525414
  N        13.7051231950        5.1712025135        5.1712446816
  C        12.3859166597        5.4391915428        5.4392297230
  N        19.6034897189       17.5795319483       16.0231212587
  C        20.9213611689       17.3057839693       16.2899754947
  N         8.7651810697       17.5666593992        5.1885969695
  C        10.0831978075       17.2947580205        5.4570985594
  N        19.5667815233        5.2024320361        6.7583432222
  C        20.8842212810        5.4734511981        6.4891413347
  N         8.7650483530        5.1886188367       17.5666140134
  C        10.0830675348        5.4571042215       17.2947343262
  N         2.9036941756       17.5557601255        6.7579301509
  C         1.5851155209       17.2877649069        6.4897366098
  N        13.7420731780       17.5897464685       17.5898090529
  C        12.4243693031       17.3186068191       17.3186399455
  N        15.8791905019        3.0321823673        5.1847920828
  C        16.1523945177        1.7157725686        5.4569648089
  N        15.8935221587       13.8757457152       16.0234880176
  C        16.1616508983       12.5570742234       16.2883975951
  N        15.9023559081       19.7389729033       17.5822901245
  C        16.1662001332       21.0561163292       17.3039118122
  N        15.8450535395        8.8938433366        6.7448050980
  C        16.1204480304       10.2127649769        6.4863941451
  N         6.6021417669       19.7157126901        5.1948429548
  C         6.3253219376       21.0322030260        5.4625615170
  N         6.6307965624        8.9018377388       16.0086195155
  C         6.3672447726       10.2207532692       16.2811659054
  N         6.6062945955        3.0421998151       17.5682700597
  C         6.3387787435        1.7241188419       17.2991928883
  N         6.6043304637       13.8477607394        6.7459771448
  C         6.3331248594       12.5304889766        6.4740666409
  N         5.0529900252       16.0098188885        3.0380521287
  C         5.3253567659       16.2814358465        1.7210620709
  N         5.0496878456        5.1888736811       13.8515239878
  C         5.3177470807        5.4579507185       12.5332644430
  N        17.4509785096       16.0187407881       19.7372202742
  C        17.1772109309       16.2833249868       21.0554401738
  N        17.4059100183        5.1946828009        8.8997001339
  C        17.1391028116        5.4737395214       10.2159600809
  N         5.0515986001        6.7556717849       19.7105888760
  C         5.3130712308        6.4817772558       21.0293813501
  N         5.0676285417       17.5556828178        8.9059892532
  C         5.3461820452       17.2912787945       10.2227642610
  N        17.4272888568        6.7483578781        3.0382770405
  C        17.1630521940        6.4775562314        1.7196377886
  N        17.4505198871       17.5769225170       13.8691082320
  C        17.1783281461       17.3028432980       12.5525917417
  N         5.0269053920        3.0290338563        6.7428266978
  C         5.3010910630        1.7112821688        6.4754845468
  N         5.0826692446       13.8608334670       17.5652624418
  C         5.3534192838       12.5434617467       17.2957827535
  N        17.4372111140       19.7213855257        6.7560905725
  C        17.1683060769       21.0384236081        6.4814272430
  N        17.4312049397        8.9132317386       17.5699064035
  C        17.1676940769       10.2316821368       17.2989848126
  N         5.0690299408       19.7212797853       16.0117412910
  C         5.3331366507       21.0399213237       16.2825757568
  N         5.0428065856        8.8953225142        5.1815169190
  C         5.3152881758       10.2120135698        5.4538475882
  N        17.4303353250        3.0558114888       15.9963023569
  C        17.1672462670        1.7373323058       16.2714327532
  N        17.4229854536       13.8537788588        5.2249076126
  C        17.1477549695       12.5362549523        5.4889504687
  N         2.9210404387       16.0092677298       17.5650101990
  C         1.6032529366       16.2832938144       17.2989229478
  N        13.7206845146       16.0088838612        6.7495072885
  C        12.4036459481       16.2756318390        6.4727239367
  N        19.5825298008       16.0041933726        5.2131365870
  C        20.9009111805       16.2742222924        5.4793590811
  N         8.7902277340       16.0247518583       16.0247119600
  C        10.1062184084       16.2987027963       16.2986879835
  N        19.5861290271        6.7664166840       17.5625900654
  C        20.9032677787        6.4940754102       17.2908947856
  N         8.7474802585        6.7268263192        6.7268365795
  C        10.0642870059        6.4553482162        6.4553755113
  N         2.8823944416        6.7520884862        5.1959654151
  C         1.5649476300        6.4860656153        5.4703168338
  N        13.7205853718        6.7494634203       16.0089336134
  C        12.4035393341        6.4726921697       16.2756577060
  N        15.8886168936        5.1939443866       19.7170208967
  C        16.1572859355        5.4611621307       21.0352521327
  N        15.8729148611       16.0156704058        8.9193368149
  C        16.1507454632       16.2843631239       10.2360134416
  N        15.8814016461       17.5577338896        3.0540493369
  C        16.1561027370       17.2912799070        1.7369257155
  N        15.8643961865        6.7781827434       13.8523219727
  C        16.1299429745        6.5027265140       12.5346760680
  N         6.5782442793        5.1824279400        3.0301443147
  C         6.3134847600        5.4566160748        1.7126216099
  N         6.6470420173       16.0175617599       13.8608026271
  C         6.3747964518       16.2857629596       12.5427930323
  N         6.6185877151       17.5730996062       19.7264060649
  C         6.3453842730       17.3017014047       21.0431608520
  N         6.6006223980        6.7349671362        8.8896737278
  C         6.3318193901        6.4686354265       10.2086581167
  N        19.5862744689       17.5625539562        6.7664645815
  C        20.9034162731       17.2909039819        6.4940778837
  N         8.7818228270       17.5809990139       17.5809355589
  C        10.1016001546       17.3144397824       17.3144126848
  N         2.8824152544        5.1960152063        6.7520173961
  C         1.5649621431        5.4703513788        6.4860232901
  N        13.7241654029        5.2026995367       17.5740873861
  C        12.4054230998        5.4644483581       17.2988098888
  N         2.9210184027       17.5650771930       16.0091995540
  C         1.6032371456       17.2989713858       16.2832471733
  N        13.7243017688       17.5740263851        5.2027341559
  C        12.4055553435       17.2987776982        5.4644748945
  N        19.5823833812        5.2130862305       16.0042314375
  C        20.9007622953        5.4793555564       16.2742151108
  N         8.7444660401        5.1718149291        5.1717821878
  C        10.0633588159        5.4398042788        5.4398071356
  N         6.6185695507       19.7264965416       17.5730220164
  C         6.3453185726       21.0432460865       17.3016409601
  N         6.6006683545        8.8897045455        6.7349286268
  C         6.3318964066       10.2086937744        6.4685911073
  N         6.5782416325        3.0302226947        5.1823077157
  C         6.3135179169        1.7126955466        5.4565031864
  N         6.6470288531       13.8608435347       16.0175019464
  C         6.3747566974       12.5428377266       16.2856985492
  N        15.8812481403        3.0539930793       17.5577979108
  C        16.1559644897        1.7368688510       17.2913450175
  N        15.8645094787       13.8522634219        6.7782354168
  C        16.1300458046       12.5346187413        6.5027735744
  N        15.8887311584       19.7169508443        5.1940092834
  C        16.1573652021       21.0351833986        5.4612504507
  N        15.8728208977        8.9192849540       16.0157514720
  C        16.1506715162       10.2359589342       16.2844439351
  N        17.4371151970        6.7560064867       19.7214403906
  C        17.1682370103        6.4813283410       21.0384795539
  N        17.4313095051       17.5698132451        8.9133018307
  C        17.1677730961       17.2988991300       10.2317491705
  N         5.0268994692        6.7429436341        3.0289841535
  C         5.3010542865        6.4755949585        1.7112254744
  N         5.0826922202       17.5653394601       13.8607674737
  C         5.3534687101       17.2958585118       12.5434000815
  N        17.4304782723       15.9962333068        3.0558559238
  C        17.1673804846       16.2713645827        1.7373777293
  N        17.4228559910        5.2248329437       13.8538416927
  C        17.1476420914        5.4888925398       12.5363164892
  N         5.0690604781       16.0118061345       19.7212160062
  C         5.3332099052       16.2826287754       21.0398541929
  N         5.0427713371        5.1815428993        8.8952630884
  C         5.3152151333        5.4538876870       10.2119604957
  N        17.4509206694       19.7371860875       16.0188075650
  C        17.1771252665       21.0553988031       16.2833895035
  N        17.4059387357        8.8996375058        5.1946842506
  C        17.1391650175       10.2158998981        5.4737625644
  N         5.0527990052        3.0381148109       16.0097848426
  C         5.3252003517        1.7211284264       16.2813942890
  N         5.0498395975       13.8515713973        5.1888245459
  C         5.3178740985       12.5333103946        5.4579007317
  N        17.4272770007        3.0382347938        6.7484712391
  C        17.1630649086        1.7195876819        6.4776707948
  N        17.4505380322       13.8690379674       17.5769751830
  C        17.1783129996       12.5525241866       17.3029127398
  N         5.0517421462       19.7106534339        6.7556062959
  C         5.3131785337       21.0294455934        6.4816909682
  N         5.0675024601        8.9060532976       17.5556133491
  C         5.3460802116       10.2228249458       17.2912087414
  N        19.5667610548        6.7582987496        5.2024606514
  C        20.8842064279        6.4891217542        5.4734640713
  N         8.7650087561        6.7288518350       15.9950644725
  C        10.0824824604        6.4627143166       16.2691116883
  N         2.9035386637        6.7580147742       17.5556660935
  C         1.5849601394        6.4898050184       17.2876936236
  N        13.7010968708        6.7265773474        6.7266287376
  C        12.3844804386        6.4548726086        6.4549218100
  N         2.8993800743       16.0042025374        5.1980296669
  C         1.5823262417       16.2737204465        5.4724029915
  N        13.7450529959       16.0338895762       16.0339571778
  C        12.4271745025       16.3029198876       16.3029579597
  N        19.6035174007       16.0230866773       17.5795431301
  C        20.9213789788       16.2899707475       17.3057772049
  N         8.7651054947       15.9951089703        6.7288345766
  C        10.0825873648       16.2691368766        6.4627122797
  N         6.6064605645       17.5683232728        3.0421154677
  C         6.3389238004       17.2992453267        1.7240359524
  N         6.6042004361        6.7460185530       13.8477308643
  C         6.3330051349        6.4741117542       12.5304560077
  N         6.6020127583        5.1949152372       19.7156351888
  C         6.3252198846        5.4626522099       21.0321266790
  N         6.6308926756       16.0086631725        8.9017973526
  C         6.3673299161       16.2812202982       10.2207090245
  N        15.9023992340       17.5822170061       19.7390345487
  C        16.1662810704       17.3038447363       21.0561742266
  N        15.8450234901        6.7448036206        8.8938960708
  C        16.1203884519        6.4863742029       10.2128190444
  N        15.8792017061        5.1846820173        3.0322516174
  C        16.1523785111        5.4568546645        1.7158386544
  N        15.8935175796       16.0234203258       13.8758040734
  C        16.1616706610       16.2883229635       12.5571320652
 Zn        14.6002448469       14.7384877418       14.7385782353
 Br        13.2570221622       13.4382097090       13.4382337961
 Zn        14.5873665708        3.8873027343        3.8873772933
 Br        13.2836872526        2.5667452559        2.5668328052
 Zn         3.7580406168       14.7170981698        3.8975737335
 Br         2.4402889004       13.4082365594        2.5807385839
 Zn         3.7578044771        3.8976229001       14.7170550467
 Br         2.4401117495        2.5807910918       13.4081429801
 Zn         7.9052047326        8.0286515101       14.7089627582
 Br         9.2120104046        9.3436986736       13.3861448131
 Zn         7.8987082298       18.8637121057        3.9015657512
 Br         9.2143858980       20.1792610303        2.5899646199
 Zn        18.7093246660        8.0494329174        3.9042070868
 Br        20.0237722176        9.3666323552        2.5939378810
 Zn        18.7416448591       18.8730916334       14.7260232978
 Br        20.0568972887       20.1858956356       13.4106063250
 Zn         7.9052887557       14.7089934765        8.0286209329
 Br         9.2120889405       13.3861768339        9.3436777359
 Zn         7.8985898991        3.9016039197       18.8636514553
 Br         9.2142121042        2.5899788046       20.1792250232
 Zn        18.7417211986       14.7259704760       18.8731012900
 Br        20.0569401003       13.4105183486       20.1859000876
 Zn        18.7093246204        3.9042117420        8.0495035633
 Br        20.0237525195        2.5939565908        9.3667399389
 Zn        14.5482737207        8.0217489512        8.0217552821
 Br        13.2061852330        9.3238059723        9.3236714831
 Zn        14.6107464324       18.8798210738       18.8798919363
 Br        13.2996694536       20.1958404896       20.1959407648
 Zn         3.7696402484        8.0538238811       18.8416308459
 Br         2.4546471271        9.3682229044       20.1571364307
 Zn         3.7698076645       18.8417152422        8.0537691619
 Br         2.4547860829       20.1572222479        9.3681390024
 Zn        14.5701159138       14.7254214373        8.0606777638
 Br        13.2235864106       13.4501984809        9.3810737830
 Zn        14.5941801428        3.9047738778       18.8584020858
 Br        13.2788469122        2.5881577732       20.1701625864
 Zn         3.7845322475       14.7163977321       18.8559170537
 Br         2.4683868262       13.4007533673       20.1679817844
 Zn         3.7400035299        3.8953368443        8.0404446330
 Br         2.4262637925        2.5825366810        9.3569006626
 Zn         7.8947191833        8.0194271166        8.0194203147
 Br         9.2064789307        9.3358157784        9.3358189645
 Zn         7.9075581233       18.8719047522       18.8718235636
 Br         9.2189027907       20.1881564159       20.1880631631
 Zn        18.7237824601        8.0539188381       18.8638884573
 Br        20.0435119022        9.3619239341       20.1793251513
 Zn        18.7238702440       18.8638013462        8.0539807117
 Br        20.0435926739       20.1792356516        9.3620072450
 Zn        14.5700124914        8.0606486437       14.7254857485
 Br        13.2234647014        9.3810716241       13.4503143486
 Zn        14.5943246153       18.8583084065        3.9048095305
 Br        13.2790232442       20.1701014332        2.5881911913
 Zn         3.7399997039        8.0405659928        3.8953227726
 Br         2.4262757983        9.3570298435        2.5825196519
 Zn         3.7845195324       18.8559950581       14.7163379057
 Br         2.4683905176       20.1680274968       13.4006449868
 Zn         7.9417498478       14.7261574650       14.7261198436
 Br         9.2506012697       13.4095466568       13.4095177027
 Zn         7.8700205057        3.8869961643        3.8869073111
 Br         9.1817615891        2.5703614262        2.5702582766
 Zn        18.7180244705       14.7088501452        3.9294177008
 Br        20.0263279661       13.3854803908        2.6164265324
 Zn        18.7179161670        3.9293242265       14.7089035016
 Br        20.0262059141        2.6163234172       13.3855443805
 Zn         5.8362059805        5.9661493931       16.7782991557
 Zn        16.6722837900       16.8112197961       16.8112866091
 Zn        16.6362667458        5.9605709272        5.9606151766
 Zn         5.8363141486       16.7783501116        5.9660848997
 Zn         5.8071783227        5.9572876877        5.9572407760
 Zn        16.6548787185       16.7825746498        5.9927706298
 Zn         5.8521387261       16.7876841019       16.7875907603
 Zn        16.6547736703        5.9927109701       16.7826326243
  N         3.6481737507        5.9764662949       16.7795978958
  N        14.4498457234        5.9500841433        5.9501306673
  N        18.8570409235       16.8030943028       16.8031293133
  N         8.0185260132       16.7804529373        5.9584870127
  N        18.8200249110        5.9795215221        5.9795656048
  N         8.0184084509        5.9585133989       16.7803991593
  N         3.6483278798       16.7796954047        5.9763730998
  N        14.4902145261       16.8123155683       16.8123957817
  N        16.6507069747        3.7816747964        5.9661653044
  N        16.6725840076       14.6196262983       16.8027797491
  N        16.6792550088       18.9915959485       16.8041106138
  N        16.6232607630        8.1497689472        5.9644869799
  N         5.8310220871       18.9662842399        5.9768092944
  N         5.8447546231        8.1569176775       16.7797311530
  N         5.8284997400        3.7866690919       16.7882594155
  N         5.8283617462       14.5962589584        5.9679201225
  N         5.8286898006       16.7883009330        3.7865961602
  N         5.8282129624        5.9679650029       14.5962175842
  N        16.6792883453       16.8040366608       18.9916467431
  N        16.6232474146        5.9644955213        8.1498256625
  N         5.8308702026        5.9768676821       18.9662144643
  N         5.8448734852       16.7797853523        8.1568638667
  N        16.6507314066        5.9660548508        3.7817316053
  N        16.6725588436       16.8027259337       14.6196895799
  N         5.8003680027        3.7761805353        5.9606611595
  N         5.8648743153       14.6073404795       16.7915735856
  N        16.6626253076       18.9720776538        5.9771727756
  N        16.6485933215        8.1699552943       16.7937124171
  N         5.8462045362       18.9769090010       16.7923733533
  N         5.8205995900        8.1456773145        5.9567881502
  N        16.6528844288        3.8019288961       16.7751472781
  N        16.6462276471       14.5996954790        6.0041928740
  N         3.6677680429       16.7850333121       16.7849563963
  N        14.4690932852       16.7936692846        5.9802668641
  N        18.8377639218       16.7835103605        5.9914668040
  N         8.0393894521       16.8008088645       16.8007412104
  N        18.8376187190        5.9913946530       16.7835731118
  N         7.9988396255        5.9501599583        5.9501340386
  N         3.6288255562        5.9715874651        5.9715178304
  N        14.4689740221        5.9802238236       16.7937370825
  N        16.6625037462        5.9771085063       18.9721400842
  N        16.6487031935       16.7936235814        8.1700156082
  N        16.6530374137       16.7750808959        3.8019809989
  N        16.6460995947        6.0041248496       14.5997546684
  N         5.8003827271        5.9607825961        3.7761160275
  N         5.8648795570       16.7916403394       14.6072840661
  N         5.8462059820       16.7924541929       18.9768314229
  N         5.8205777902        5.9568147967        8.1456321325
  C        11.2685725958       15.7513126467       15.7513284390
  H        11.2723342593       14.9757898532       14.9758096578
  C        11.2243985313        4.8896865549        4.8897000556
  H        11.2235380381        4.1142107671        4.1142098837
  C         0.4199079738       15.7242389967        4.9262228827
  H         0.4174372836       14.9484816956        4.1509193253
  C         0.4197567233        4.9262572213       15.7241956032
  H         0.4172884076        4.1509534162       14.9484367619
  C        11.2421846799        7.0112419203       15.7168252985
  H        11.2415883884        7.7799387597       14.9345052690
  C        11.2451391963       17.8507318644        4.9156060987
  H        11.2461077030       18.6330081056        4.1469812446
  C         0.4045750428        7.0381220489        4.9227640124
  H         0.4046726482        7.8135040441        4.1471028643
  C         0.4423141433       17.8519858392       15.7371213269
  H         0.4426285163       18.6273844562       14.9614993418
  C        11.2422709081       15.7168285504        7.0112599541
  H        11.2416444762       14.9345110125        7.7799592349
  C        11.2449884447        4.9155964578       17.8507380616
  H        11.2459227668        4.1469749923       18.6330176509
  C         0.4423522219       15.7371387080       17.8519555198
  H         0.4427038776       14.9615131582       18.6273506267
  C         0.4046139237        4.9227755994        7.0381110991
  H         0.4047546747        4.1471154279        7.8134951618
  C        11.2244786270        7.0047436490        7.0047952800
  H        11.2253267603        7.7802814694        7.7803433457
  C        11.2610013181       17.8661250391       17.8661239686
  H        11.2581990097       18.6416248567       18.6416186567
  C         0.4258371066        7.0416188328       17.8388489469
  H         0.4283070248        7.8170723445       18.6143665170
  C         0.4259905496       17.8388927646        7.0415779111
  H         0.4284650746       18.6144130721        7.8170299097
  C        15.6064660170       11.3999423141       15.7365768464
  H        14.8284150520       11.4051536220       14.9636922416
  C        15.6082866930        0.5533028836        4.9060216868
  H        14.8364509979        0.5500870226        4.1268105926
  C         4.7668225794       11.3742208282        4.9063441041
  H         3.9913246433       11.3764793633        4.1308455664
  C         4.7807211003        0.5584127724       15.7308940943
  H         4.0072966157        0.5552049731       14.9533183354
  C        15.5741509980       11.3721377272        7.0432612290
  H        14.7953048243       11.3689994321        7.8153612700
  C        15.6138163410        0.5770210816       17.8497284128
  H        14.8417095627        0.5779549688       18.6286907695
  C         4.7974320943       11.3837868999       17.8406756598
  H         4.0172120493       11.3848442061       18.6115541531
  C         4.7591782008        0.5490259041        7.0300718017
  H         3.9864406877        0.5469233873        7.8083232018
  C         6.9244879720       11.3810336049       15.7376285695
  H         7.7037548335       11.3799156185       14.9659555874
  C         6.8669519469        0.5537324041        4.9075675309
  H         7.6396590721        0.5557781362        4.1292337288
  C        17.6945223318       11.3775483436        4.9330954233
  H        18.4714673293       11.3801287317        4.1589833450
  C        17.7192794359        0.5759591148       15.7250784959
  H        18.4914118725        0.5752287283       14.9462404187
  C         6.8822384058       11.3679900386        7.0209703777
  H         7.6580150688       11.3658311649        7.7962523956
  C         6.8901202198        0.5657431296       17.8518980470
  H         7.6637125163        0.5691233069       18.6293751160
  C        17.7241011266       11.3888169357       17.8495026322
  H        18.5002548388       11.3836026795       18.6244235128
  C        17.7134679430        0.5610565828        7.0313443539
  H        18.4856065522        0.5642156320        7.8101936502
  C        15.6065138393       15.7364993102       11.3999877008
  H        14.8284622080       14.9636160220       11.4051834389
  C        15.6082358173        4.9059227778        0.5533797220
  H        14.8363943531        4.1267164072        0.5501809583
  C         4.7808412585       15.7309367372        0.5583624110
  H         4.0074177898       14.9533603751        0.5551825156
  C         4.7667215530        4.9063941336       11.3741606883
  H         3.9912225260        4.1308970008       11.3764020065
  C         6.9245452543       15.7376820401       11.3810014825
  H         7.7038038629       14.9660006110       11.3799025845
  C         6.8668850623        4.9076732754        0.5536465877
  H         7.6395922825        4.1293395508        0.5556731190
  C        17.7193904202       15.7250131916        0.5759904950
  H        18.4915208873       14.9461730025        0.5752412322
  C        17.6944274546        4.9330496545       11.3776136396
  H        18.4713657993        4.1589307443       11.3801987506
  C        15.5740713974        7.0432294776       11.3721898247
  H        14.7952311462        7.8153353162       11.3690483143
  C        15.6139291339       17.8496641083        0.5770910589
  H        14.8418232656       18.6286270363        0.5780485614
  C         4.7591073996        7.0301688994        0.5489760381
  H         3.9863705189        7.8084207724        0.5468913927
  C         4.7975160290       17.8407571297       11.3837120404
  H         4.0173048620       18.6116445520       11.3847468084
  C         6.8821371462        7.0210160094       11.3679653744
  H         7.6579148997        7.7962971631       11.3658198883
  C         6.8902239901       17.8519564114        0.5656427879
  H         7.6638123297       18.6294378372        0.5689958020
  C        17.7134341502        7.0312320681        0.5610996231
  H        18.4855793726        7.8100740306        0.5642433015
  C        17.7241497855       17.8494232761       11.3888957697
  H        18.5003052168       18.6243433876       11.3836978084
 Kr        15.9649248901       11.3575701990       11.3578559821
