     409
 i =     176, E =    -5136.5221257160
  N         2.8421227207        5.2215959298       16.0290960782
  C         1.5425103275        5.4910847993       16.2986069504
  N        13.6401560448        5.2119428938        5.2119834006
  C        12.3405432923        5.4814582519        5.4814655332
  N        19.5421178894       17.5542796557       16.0144333216
  C        20.8421963256       17.2847941612       16.2816649658
  N         8.7251512008       17.5639384682        5.2163037530
  C        10.0252361482       17.2944307796        5.4835071464
  N        19.5229476978        5.2066899507        6.7467903977
  C        20.8230346164        5.4738673432        6.4772898100
  N         8.7249628999        5.2163410713       17.5639018391
  C        10.0250559831        5.4835256799       17.2944148498
  N         2.8450168722       17.5691892094        6.7614485803
  C         1.5444536660       17.3020305679        6.4942143754
  N        13.6620281967       17.5595387898       17.5595716482
  C        12.3614649435       17.2923462255       17.2923742032
  N        15.8090170154        3.0392962822        5.2100777585
  C        16.0764559723        1.7389681780        5.4781745345
  N        15.8281624317       13.8468202300       16.0176952827
  C        16.0955869635       12.5464917014       16.2858098099
  N        15.8347675129       19.7282637769       17.5576629729
  C        16.1040610028       21.0281069588       17.2890972206
  N        15.8156281331        8.9207852217        6.7500494841
  C        16.0848980313       10.2206355054        6.4814602816
  N         6.5562840258       19.7365447760        5.2182100990
  C         6.2893237235       21.0368676639        5.4867854300
  N         6.5561202025        8.9290619685       16.0258393362
  C         6.2891751329       10.2293914509       16.2944296401
  N         6.5522184596        3.0475727997       17.5658113511
  C         6.2824618738        1.7477242822       17.2977110427
  N         6.5523860947       13.8551049959        6.7581826127
  C         6.2826308968       12.5552557328        6.4900768810
  N         5.0110933254       16.0272798703        3.0488544537
  C         5.2785114856       16.2954169743        1.7485303410
  N         5.0109244973        5.2196578882       13.8563868909
  C         5.2783718263        5.4877634502       12.5560623558
  N        17.3733299962       16.0162447273       19.7269815819
  C        17.1063839748       16.2848533021       21.0273001168
  N        17.3541820503        5.2086241500        8.9195055466
  C        17.0872256893        5.4772168321       10.2198305940
  N         5.0174679965        6.7596298402       19.7378278551
  C         5.2867080421        6.4910293713       21.0376754626
  N         5.0176320319       17.5672539134        8.9303440460
  C         5.2868780816       17.2986670474       10.2301981388
  N        17.3503880956        6.7486155977        3.0380155453
  C        17.0806977188        6.4804683899        1.7381629405
  N        17.3695426167       17.5562246431       13.8455373906
  C        17.0998176705       17.2881152240       12.5456847243
  N         5.0027595013        3.0489527981        6.7595477139
  C         5.2696829281        1.7486247364        6.4909365344
  N         5.0218968773       13.8564757240       17.5671579235
  C         5.2888478224       12.5561475915       17.2985769984
  N        17.3652419329       19.7268889985        6.7487009761
  C        17.0978559413       21.0272118391        6.4805504949
  N        17.3650843179        8.9194071736       17.5563185851
  C        17.0976685843       10.2197363229       17.2882046191
  N         5.0258034186       19.7379182875       16.0271833717
  C         5.2955249834       21.0377614492       16.2953204587
  N         5.0066588901        8.9304407028        5.2195661892
  C         5.2763969813       10.2302905680        5.4876803851
  N        17.3584758632        3.0379175193       16.0163421511
  C        17.0892277267        1.7380690944       16.2849522538
  N        17.3586414696       13.8454486961        5.2087157715
  C        17.0893806079       12.5455998351        5.4773107186
  N         2.8531301091       16.0292132795       17.5690607179
  C         1.5530466684       16.2987491526       17.3018803983
  N        13.6511643380       16.0195643170        6.7519507163
  C        12.3510801820       16.2890874107        6.4847535074
  N        19.5312511980       16.0143119955        5.2068155526
  C        20.8318092285       16.2815218345        5.4739998320
  N         8.7332653918       16.0239651363       16.0239289177
  C        10.0338298688       16.2911524607       16.2911356386
  N        19.5338132744        6.7466649199       17.5544065222
  C        20.8334205081        6.4771332654       17.2849380781
  N         8.7168457559        6.7563196170        6.7562782292
  C        10.0164598411        6.4868006215        6.4867967561
  N         2.8340105494        6.7615765055        5.2214761825
  C         1.5339185203        6.4943683803        5.4909453180
  N        13.6510227726        6.7519157919       16.0196047864
  C        12.3509304808        6.4847325617       16.2891024859
  N        15.8237050111        5.2100025323       19.7283379663
  C        16.0934585740        5.4780881139       21.0281850950
  N        15.8238703791       16.0176295514        8.9208535734
  C        16.0936045386       16.2857336186       10.2207075018
  N        15.8200740233       17.5575944424        3.0393627928
  C        16.0870759493       17.2890428162        1.7390390559
  N        15.8199164645        6.7499759447       13.8468956941
  C        16.0868941475        6.4813957249       12.5465713333
  N         6.5414114805        5.2182875225        3.0475081001
  C         6.2721394977        5.4868548106        1.7476552987
  N         6.5605549993       16.0259056887       13.8550312572
  C         6.2913049362       16.2944975656       12.5551779113
  N         6.5670994685       17.5658690615       19.7364705547
  C         6.2996264552       17.2977861710       21.0367893969
  N         6.5479488320        6.7582547834        8.9289933631
  C         6.2805009178        6.4901464368       10.2293191316
  N        19.5339783361       17.5542802412        6.7467901414
  C        20.8335855703       17.2847921529        6.4772780880
  N         8.7359934473       17.5639338784       17.5639005740
  C        10.0356068350       17.2944313087       17.2944094670
  N         2.8339870208        5.2216010105        6.7614506637
  C         1.5339031379        5.4910935421        6.4942265244
  N        13.6509985064        5.2119374132       17.5595760053
  C        12.3509146782        5.4814496341       17.2923742153
  N         2.8531535017       17.5691858307       16.0290847211
  C         1.5530619284       17.3020312440       16.2986068740
  N        13.6511867858       17.5595372578        5.2119741777
  C        12.3510948086       17.2923536169        5.4814650959
  N        19.5310860398        5.2066907046       16.0144378725
  C        20.8316440521        5.4738513423       16.2816714125
  N         8.7141195020        5.2163453531        5.2163107354
  C        10.0146840340        5.4835356277        5.4835085953
  N         6.5671299803       19.7365410562       17.5658005857
  C         6.2996884217       21.0368638809       17.2977058788
  N         6.5479781608        8.9290625972        6.7581890693
  C         6.2805629512       10.2293924614        6.4900679533
  N         6.5413770278        3.0475775730        5.2182170098
  C         6.2720921107        1.7477287870        5.4867907819
  N         6.5605200269       13.8551014913       16.0258337448
  C         6.2912535526       12.5552522804       16.2944292629
  N        15.8198523073        3.0392926289       17.5576653834
  C        16.0868375590        1.7389648975       17.2891165557
  N        15.8200277499       13.8468246863        6.7500494830
  C        16.0869769976       12.5464962781        6.4814605984
  N        15.8239276095       19.7282666235        5.2100713946
  C        16.0936867696       21.0281097458        5.4781708132
  N        15.8237636408        8.9207834983       16.0176983385
  C        16.0935072788       10.2206333141       16.2858128010
  N        17.3650501744        6.7486017184       19.7269836211
  C        17.0976240560        6.4804715590       21.0273023881
  N        17.3652178309       17.5562226389        8.9195003946
  C        17.0977719769       17.2881192935       10.2198255608
  N         5.0028125995        6.7596365874        3.0488603999
  C         5.2697643790        6.4910345581        1.7485362803
  N         5.0219515447       17.5672493602       13.8563819412
  C         5.2889258783       17.2986719517       12.5560578921
  N        17.3586739728       16.0162473650        3.0380105129
  C        17.0894475851       16.2848600173        1.7381580895
  N        17.3585125469        5.2086250355       13.8455435022
  C        17.0892626827        5.4772108016       12.5456904541
  N         5.0257451012       16.0272794837       19.7378247707
  C         5.2954598121       16.2954039263       21.0376719814
  N         5.0066029394        5.2196581152        8.9303481382
  C         5.2763272265        5.4877665673       10.2302020595
  N        17.3733812126       19.7268884049       16.0163334171
  C        17.1064670070       21.0272108643       16.2849544972
  N        17.3542373008        8.9194108235        5.2087172658
  C        17.0873050248       10.2197400559        5.4773138825
  N         5.0108930388        3.0489483141       16.0271897185
  C         5.2782889445        1.7486201172       16.2953293201
  N         5.0110568170       13.8564794249        5.2195638554
  C         5.2784816506       12.5561508657        5.4876724123
  N        17.3503360240        3.0379212466        6.7487064166
  C        17.0806212878        1.7380727052        6.4805639190
  N        17.3694881464       13.8454439171       17.5563160904
  C        17.0997435998       12.5455953698       17.2882064214
  N         5.0176690655       19.7379199809        6.7595395433
  C         5.2869159357       21.0377636013        6.4909267967
  N         5.0175008016        8.9304380351       17.5671616967
  C         5.2867677577       10.2302879579       17.2985756398
  N        19.5229710269        6.7466664628        5.2068209521
  C        20.8230497520        6.4771323332        5.4740043969
  N         8.7249852392        6.7563148667       16.0239322951
  C        10.0250705731        6.4868120453       16.2911466993
  N         2.8448517064        6.7615735350       17.5690654599
  C         1.5442885289        6.4943661698       17.3018798579
  N        13.6428861023        6.7519204931        6.7519535985
  C        12.3423222047        6.4847226535        6.4847544212
  N         2.8422877237       16.0292234573        5.2214676429
  C         1.5426753077       16.2987467898        5.4909439038
  N        13.6592999674       16.0195616837       16.0196027641
  C        12.3596871923       16.2890804546       16.2890871244
  N        19.5420945032       16.0143070484       17.5544054417
  C        20.8421811019       16.2815190695       17.2849398088
  N         8.7251268045       16.0239689237        6.7562776560
  C        10.0252202831       16.2911638519        6.4867947325
  N         6.5524428211       17.5658777337        3.0475022880
  C         6.2826960812       17.2977870280        1.7476497322
  N         6.5522744974        6.7582554753       13.8550358373
  C         6.2825421430        6.4901468110       12.5551824585
  N         6.5560681945        5.2182853185       19.7364753725
  C         6.2890732753        5.4868454891       21.0367943139
  N         6.5562288259       16.0259092394        8.9289917797
  C         6.2892658542       16.2945014822       10.2293171871
  N        15.8347314290       17.5575895809       19.7283341299
  C        16.1040162510       17.2890342458       21.0281812893
  N        15.8155923982        6.7499761811        8.9208562995
  C        16.0848486872        6.4813931908       10.2207106287
  N        15.8090492843        5.2100070107        3.0393674647
  C        16.0765113659        5.4781000842        1.7390433618
  N        15.8281949115       16.0176261596       13.8468902241
  C        16.0956438775       16.2857357915       12.5465657311
 Zn        14.4515599640       14.6427488034       14.6427978157
 Br        13.1389740646       13.3336547684       13.3336839561
 Zn        14.4323799812        3.8351381420        3.8351886027
 Br        13.1198247593        2.5260269241        2.5260575634
 Zn         3.6344623022       14.6523724122        3.8446759247
 Br         2.3218603439       13.3433082858        2.5355446712
 Zn         3.6342974732        3.8447903176       14.6522588695
 Br         2.3216952038        2.5356788377       13.3431752583
 Zn         7.9303083544        8.1331344053       14.6485261629
 Br         9.2405938577        9.4422304991       13.3371099105
 Zn         7.9305172839       18.9407340423        3.8408990120
 Br         9.2407670361       20.2498579067        2.5294717548
 Zn        18.7284089454        8.1235260246        3.8314127691
 Br        20.0387216702        9.4325862363        2.5199848542
 Zn        18.7475628573       18.9310842508       14.6389780253
 Br        20.0578695216       20.2402031591       13.3276032856
 Zn         7.9304079218       14.6485748829        8.1330852921
 Br         9.2406540252       13.3371392148        9.4422013431
 Zn         7.9302874645        3.8409483577       18.9406853166
 Br         9.2404969348        2.5295010028       20.2498293629
 Zn        18.7474978951       14.6388637369       18.9311981464
 Br        20.0577647576       13.3274692432       20.2403370876
 Zn        18.7283438676        3.8312977200        8.1236418017
 Br        20.0386160735        2.5198496315        9.4327223278
 Zn        14.4400222221        8.1273157753        8.1273656133
 Br        13.1320788375        9.4387518930        9.4387819006
 Zn        14.4591145745       18.9349176164       18.9349671225
 Br        13.1512125568       20.2463759434       20.2464048124
 Zn         3.6418960881        8.1370106618       18.9444534297
 Br         2.3339418814        9.4484112067       20.2558974453
 Zn         3.6420606199       18.9445668702        8.1368960990
 Br         2.3341063457       20.2560309310        9.4482765699
 Zn        14.4458409482       14.6427520218        8.1273652163
 Br        13.1355560942       13.3336571821        9.4387824637
 Zn        14.4456320426        3.8351260521       18.9349660850
 Br        13.1353831526        2.5260199442       20.2464110069
 Zn         3.6477143933       14.6523603612       18.9444524880
 Br         2.3374188613       13.3433015722       20.2558980585
 Zn         3.6285782763        3.8447936549        8.1368953437
 Br         2.3182771954        2.5356816313        9.4482828284
 Zn         7.9245860614        8.1331344658        8.1330859272
 Br         9.2371726235        9.4422299829        9.4422007483
 Zn         7.9437839637       18.9407367277       18.9406869115
 Br         9.2563287995       20.2498542897       20.2498239227
 Zn        18.7416756887        8.1235286926       18.9311993781
 Br        20.0542831644        9.4325828371       20.2403370080
 Zn        18.7418405677       18.9310841483        8.1236428211
 Br        20.0544482035       20.2402020230        9.4327165741
 Zn        14.4457414419        8.1273155780       14.6428018772
 Br        13.1354964148        9.4387528994       13.3336872541
 Zn        14.4458621290       18.9349156271        3.8351754307
 Br        13.1356535413       20.2463803734        2.5260488468
 Zn         3.6286437388        8.1370086214        3.8446803807
 Br         2.3183825353        9.4484155905        2.5355479554
 Zn         3.6477796887       18.9445668724       14.6522452936
 Br         2.3375239294       20.2560320042       13.3431662834
 Zn         7.9361310327       14.6485708662       14.6485217221
 Br         9.2440756087       13.3371359058       13.3371063466
 Zn         7.9170209782        3.8409603896        3.8409119352
 Br         9.2249355490        2.5295083936        2.5294800611
 Zn        18.7342315268       14.6388757731        3.8314080302
 Br        20.0422031879       13.3274761913        2.5199812877
 Zn        18.7340666450        3.8312935426       14.6389913265
 Br        20.0420380763        2.5198466334       13.3276116446
 Zn         5.7842061188        5.9889805132       16.7964639715
 Zn        16.6014166146       16.7868866365       16.7869683716
 Zn        16.5822717737        5.9793284217        5.9794114645
 Zn         5.7843712888       16.7965446561        5.9888982702
 Zn         5.7747164945        5.9889834002        5.9889027796
 Zn        16.5919267463       16.7868896127        5.9794068740
 Zn         5.7938611449       16.7965415538       16.7964595386
 Zn        16.5917616006        5.9793253669       16.7869728031
  N         3.5819119740        5.9909406318       16.7984159543
  N        14.3799484541        5.9812703216        5.9813217486
  N        18.8036759935       16.7849330055       16.7850477921
  N         7.9867086009       16.7946083373        5.9869349281
  N        18.7845290253        5.9773499008        5.9774661494
  N         7.9865435945        5.9869838256       16.7945609181
  N         3.5820771955       16.7985302735        5.9908251892
  N        14.3990915944       16.7888897118       16.7889379201
  N        16.5803243581        3.7770337952        5.9794027863
  N        16.5994844625       14.5845599433       16.7870043430
  N        16.6034004375       18.9891457480       16.7869842620
  N        16.5842718220        8.1816671476        5.9793832785
  N         5.7863262682       18.9988018679        5.9888845403
  N         5.7861425323        8.1913193576       16.7964917202
  N         5.7822333804        3.7866858005       16.7964814877
  N         5.7823772777       14.5942200113        5.9888768439
  N         5.7824294393       16.7965648741        3.7866034768
  N         5.7822479339        5.9889564450       14.5941394148
  N        16.6033663456       16.7869018486       18.9892276270
  N        16.5842392638        5.9793016305        8.1817501477
  N         5.7861270618        5.9889656193       18.9987212953
  N         5.7862742810       16.7965732209        8.1912371250
  N        16.5803617454        5.9793157065        3.7771166978
  N        16.5995198112       16.7869209434       14.5846418530
  N         5.7727359806        3.7866903100        5.9888900399
  N         5.7918659001       14.5942164892       16.7964925244
  N        16.5939156941       18.9891473623        5.9793950622
  N        16.5937653124        8.1816645055       16.7870061448
  N         5.7958213049       18.9987991153       16.7964771581
  N         5.7766606938        8.1913207245        5.9888761425
  N        16.5898123664        3.7770302851       16.7869920195
  N        16.5899906619       14.5845645746        5.9793794561
  N         3.5915667024       16.7985261430       16.7984105657
  N        14.3896030074       16.7888904732        5.9813141738
  N        18.7941844046       16.7849413730        5.9774649174
  N         7.9961989739       16.7946113793       16.7945593732
  N        18.7940192599        5.9773481412       16.7850592478
  N         7.9770521160        5.9869901493        5.9869450546
  N         3.5724237220        5.9909374111        5.9908233572
  N        14.3894380489        5.9812641166       16.7889382073
  N        16.5937139940        5.9793166784       18.9892305348
  N        16.5938970992       16.7869232942        8.1817459919
  N        16.5900105945       16.7869084342        3.7771116997
  N        16.5898591027        5.9792973013       14.5846477347
  N         5.7727702514        5.9889712692        3.7866095455
  N         5.7918994091       16.7965741326       14.5941346069
  N         5.7957874891       16.7965599633       18.9987172328
  N         5.7766243238        5.9889598549        8.1912400497
  C        11.1958071021       15.7530897025       15.7530922120
  H        11.1944487567       14.9862694840       14.9862692731
  C        11.1766622294        4.9454639389        4.9454717720
  H        11.1753038878        4.1786443837        4.1786459804
  C         0.3788028693       15.7627731391        4.9549278489
  H         0.3774447765       14.9959499363        4.1881075342
  C         0.3786377784        4.9550937568       15.7626084885
  H         0.3772796527        4.1882709705       14.9957877613
  C        11.1880086043        7.0227929779       15.7531001419
  H        11.1880204256        7.7896166789       14.9862793462
  C        11.1881735351       17.8304238048        4.9454685020
  H        11.1881853435       18.5972439617        4.1786419677
  C         0.3710042519        7.0324313439        4.9549416839
  H         0.3710163480        7.7992519776        4.1881174692
  C         0.3901492436       17.8400990667       15.7626063714
  H         0.3901612949       18.6069211842       14.9957836288
  C        11.1881420263       15.7530982554        7.0227918634
  H        11.1881305884       14.9862786750        7.7896167679
  C        11.1879771082        4.9454678679       17.8304239532
  H        11.1879656258        4.1786422588       18.5972450400
  C         0.3901177554       15.7627718290       17.8399362441
  H         0.3901066044       14.9959478811       18.6067571475
  C         0.3709727166        4.9551003886        7.0322650312
  H         0.3709615293        4.1882799875        7.7990894923
  C        11.1803423084        7.0227929945        7.0227869631
  H        11.1817008619        7.7896110267        7.7896123549
  C        11.1994872069       17.8304158883       17.8304131510
  H        11.2008457927       18.5972378149       18.5972368515
  C         0.3823178755        7.0324218430       17.8399328164
  H         0.3836767025        7.7992458074       18.6067526502
  C         0.3824829719       17.8400939727        7.0322594955
  H         0.3838418355       18.6069158011        7.7990814612
  C        15.5570537879       11.3840423646       15.7492585746
  H        14.7895586806       11.3847278235       14.9831101985
  C        15.5379345855        0.5765268073        4.9416071475
  H        14.7704360910        0.5772125921        4.1754618264
  C         4.7399441652       11.3937005880        4.9511231485
  H         3.9724481258       11.3943860189        4.1849735264
  C         4.7397551290        0.5861786404       15.7587747428
  H         3.9722580443        0.5868644429       14.9926280487
  C        15.5493981553       11.3840453365        7.0189656833
  H        14.7832465619       11.3847303267        7.7864577317
  C        15.5492490129        0.5765233785       17.8266176597
  H        14.7830992906        0.5772087050       18.5941118925
  C         4.7512636606       11.3936972574       17.8360807331
  H         3.9851106735       11.3943822970       18.6035735514
  C         4.7320980959        0.5861816373        7.0284395506
  H         3.9659456599        0.5868669000        7.7959310482
  C         6.8267605672       11.3918422683       15.7569311648
  H         7.5929110202       11.3911577897       14.9894379992
  C         6.8075914607        0.5843265712        4.9492810836
  H         7.5737437739        0.5836422851        4.1817894518
  C        17.6248861436       11.3821903335        4.9398072138
  H        18.3910382652       11.3815058045        4.1723135414
  C        17.6247493506        0.5746683217       15.7474633184
  H        18.3908983454        0.5739840560       14.9799683991
  C         6.8190899310       11.3918441009        7.0266224384
  H         7.5865847265       11.3911589297        7.7927714025
  C         6.8189032257        0.5843220555       17.8342799970
  H         7.5864023224        0.5836371854       18.6004249747
  C        17.6362001334       11.3821858403       17.8247601491
  H        18.4036968268       11.3815007295       18.5909093937
  C        17.6170739926        0.5746701890        7.0171209413
  H        18.3845724276        0.5739852381        7.7832665380
  C        15.5571190077       15.7491936514       11.3841083401
  H        14.7896133985       14.9830557664       11.3847822283
  C        15.5379986901        4.9415416083        0.5765938169
  H        14.7704907229        4.1754057714        0.5772681291
  C         4.7399840866       15.7588734241        0.5860807665
  H         3.9724773928       14.9927363387        0.5867550265
  C         4.7398456714        4.9512204365       11.3936039394
  H         3.9723380933        4.1850823616       11.3942778407
  C         6.8268297105       15.7569991758       11.3917761994
  H         7.5929663561       14.9894922055       11.3911035359
  C         6.8076634196        4.9493526573        0.5842608754
  H         7.5737972675        4.1818425856        0.5835878728
  C        17.6249840399       15.7473688185        0.5747651627
  H        18.3911174860       14.9798583709        0.5740921132
  C        17.6247923924        4.9397136436       11.3822891763
  H        18.3909279053        4.1722033792       11.3816165060
  C        15.5493265340        7.0188942994       11.3841122148
  H        14.7831919048        7.7864032921       11.3847854796
  C        15.5495078084       17.8265471364        0.5765895664
  H        14.7833734813       18.5940567388        0.5772636389
  C         4.7321889404        7.0285299615        0.5860852747
  H         3.9660550171        7.7960399519        0.5867593791
  C         4.7513598048       17.8361757753       11.3935992393
  H         3.9852207861       18.6036825430       11.3942724146
  C         6.8190236786        7.0266874619       11.3917789251
  H         7.5865298977        7.7928249924       11.3911055001
  C         6.8191682880       17.8343424228        0.5842554488
  H         7.5866766323       18.6004781391        0.5835820698
  C        17.6171733451        7.0170201123        0.5747685183
  H        18.3846817210        7.7831557621        0.5740952489
  C        17.6362995024       17.8246611335       11.3822832546
  H        18.4038070741       18.5907994818       11.3816097758
 Kr        21.4140684742       10.7983374565       10.7984928695
