     409
 i =     176, E =    -5136.6885890014
  N         2.9202786645        5.2019928113       15.9704435138
  C         1.6033875937        5.4782237958       16.2405822867
  N        13.7105712912        5.0543756809        5.0546028963
  C        12.3900652033        5.3237809024        5.3250386342
  N        19.6702952528       17.6024776505       16.0467465591
  C        20.9871561073       17.3156166292       16.2999829878
  N         8.7806756967       17.5488777129        5.1732616344
  C        10.1012104373       17.2694200053        5.4206809268
  N        19.5829628952        5.2010131487        6.7578922389
  C        20.9007332884        5.4728609481        6.4896312210
  N         8.7798753833        5.1727873286       17.5498625290
  C        10.1004452516        5.4194937954       17.2702014098
  N         2.9275787262       17.5251086044        6.7593944652
  C         1.6090506200       17.2579908594        6.4921087447
  N        13.7982675838       17.6651925548       17.6652466941
  C        12.4819019700       17.3865491444       17.3867787382
  N        15.9392862352        2.9947593304        5.1361763950
  C        16.2111318995        1.6833100652        5.4239840681
  N        15.9679713620       13.9154432973       16.0608739900
  C        16.2399964216       12.5944780594       16.3146679515
  N        15.9865927843       19.7786030640       17.6183744279
  C        16.2331745048       21.0937564214       17.3181694399
  N        15.8202642655        8.8422640216        6.7057982532
  C        16.0974933984       10.1665676941        6.4797256486
  N         6.6040005919       19.6819053471        5.1887547968
  C         6.3217896005       20.9971894483        5.4499226573
  N         6.6910656375        8.8933998682       15.9922628128
  C         6.4337191565       10.2145795025       16.2675815012
  N         6.6154356417        3.0428579231       17.5465397427
  C         6.3520708706        1.7242401188       17.2811624990
  N         6.6249336600       13.8117967469        6.7420037507
  C         6.3593694492       12.4943269156        6.4622871717
  N         5.0711450493       15.9799433873        3.0315480135
  C         5.3449519321       16.2570834841        1.7154839154
  N         5.0699620195        5.1852083109       13.8188022484
  C         5.3423860688        5.4476218580       12.5000793763
  N        17.5256368824       16.0452684711       19.7725429756
  C        17.2374258463       16.2911296783       21.0911145237
  N        17.3943022916        5.1763655555        8.8795357046
  C        17.1227338399        5.4799246954       10.1905250360
  N         5.0690548970        6.7640502239       19.6790454786
  C         5.3202079934        6.4796054249       20.9973903389
  N         5.1051462163       17.5184477539        8.9032131611
  C         5.3987523166       17.2635997632       10.2186468830
  N        17.4687026856        6.7180386894        3.0166524614
  C        17.2108778600        6.4545307470        1.6956738541
  N        17.5232823012       17.6164049002       13.8989399384
  C        17.2540512780       17.3310832964       12.5835223620
  N         5.0242806011        2.9974685325        6.7137966049
  C         5.2973154826        1.6778910537        6.4548634841
  N         5.1479980839       13.8551555686       17.5533813049
  C         5.4192065626       12.5391347656       17.2798340175
  N        17.4781776437       19.7018079557        6.7589471389
  C        17.2143665414       21.0168774735        6.4743903366
  N        17.4933060680        8.9398744554       17.5869388185
  C        17.2382268120       10.2600955077       17.3145579600
  N         5.1074840441       19.7131881635       16.0015810525
  C         5.3626081403       21.0340213021       16.2692854136
  N         5.0784548430        8.8632683939        5.1485515709
  C         5.3495363592       10.1782934364        5.4290378594
  N        17.4427114779        3.0915842275       15.9531335701
  C        17.1984860173        1.7723506800       16.2436739233
  N        17.4044360013       13.8323042101        5.3017086361
  C        17.1270876910       12.5113255769        5.5452658918
  N         2.9826959221       15.9911513639       17.5459037197
  C         1.6658752447       16.2727076008       17.2882220980
  N        13.7478508478       15.9829858389        6.6975721070
  C        12.4284514889       16.2345291298        6.4114925021
  N        19.6005920612       15.9646772157        5.2406078346
  C        20.9212791622       16.2377348845        5.4950165372
  N         8.8657703578       16.0583637425       16.0586570982
  C        10.1764993820       16.3464780111       16.3468692657
  N        19.6130375881        6.7769427116       17.5388391401
  C        20.9280473437        6.5008864162       17.2630649676
  N         8.7679543430        6.6432029266        6.6451431058
  C        10.0775764438        6.3552758652        6.3578632218
  N         2.8990737132        6.7435388290        5.1887518771
  C         1.5815815263        6.4821814086        5.4672740161
  N        13.7471405485        6.6950920781       15.9838440636
  C        12.4277603913        6.4090373238       16.2350228366
  N        15.9363265339        5.1900224382       19.6911106454
  C        16.2096125447        5.4482136580       21.0081308043
  N        15.9421111398       16.0261899439        8.9519558226
  C        16.2241241550       16.2961468572       10.2697499892
  N        15.9078909989       17.5287262427        3.0858964211
  C        16.1957595634       17.2719027278        1.7712131753
  N        15.8401608323        6.8580133811       13.8104005358
  C        16.1028834553        6.5581506648       12.4948124063
  N         6.5547955278        5.1341073247        2.9883406292
  C         6.2965982923        5.4235176538        1.6742874356
  N         6.7334179183       16.0270624861       13.8608397738
  C         6.4542289680       16.2834468678       12.5402460071
  N         6.6429323004       17.5763587016       19.7311156101
  C         6.3664482743       17.2964375150       21.0451486870
  N         6.6468533050        6.6904372196        8.8495484335
  C         6.3714440404        6.4380635871       10.1710081122
  N        19.6132831476       17.5386899506        6.7768845140
  C        20.9283234042       17.2629956346        6.5008613584
  N         8.8296573502       17.6142039350       17.6142592899
  C        10.1552325842       17.3615089415       17.3617052137
  N         2.8991771980        5.1882975770        6.7441952109
  C         1.5816459796        5.4667172763        6.4829544039
  N        13.7411270651        5.1953872984       17.5910635696
  C        12.4240799936        5.4326525951       17.2880343177
  N         2.9827116134       17.5458655617       15.9911856112
  C         1.6658852851       17.2882045982       16.2727303301
  N        13.7419254195       17.5894854964        5.1967388758
  C        12.4248668103       17.2869736880        5.4344063434
  N        19.6002275732        5.2410642625       15.9644534789
  C        20.9209710584        5.4952292600       16.2376115746
  N         8.7380683010        5.0883003728        5.0884001362
  C        10.0625960043        5.3416293567        5.3427627500
  N         6.6428988010       19.7309736787       17.5764375287
  C         6.3663879378       21.0450044208       17.2965739120
  N         6.6474364268        8.8491626897        6.6904290437
  C         6.3719667817       10.1706249783        6.4380843332
  N         6.5550228047        2.9880236743        5.1342902445
  C         6.2968692785        1.6739290638        5.4236151102
  N         6.7333591098       13.8606889148       16.0271647429
  C         6.4541645824       12.5401015436       16.2835776744
  N        15.9077879952        3.0858966214       17.5290421142
  C        16.1957214033        1.7712735746       17.2719969751
  N        15.8426125224       13.8092099355        6.8561081424
  C        16.1054373764       12.4936984416        6.5560521610
  N        15.9363399101       19.6909824682        5.1902142892
  C        16.2096189090       21.0080516147        5.4485036039
  N        15.9424711942        8.9518652112       16.0272092808
  C        16.2245967892       10.2697184117       16.2965779046
  N        17.4782068073        6.7586640473       19.7019581286
  C        17.2144458627        6.4739951513       21.0169946116
  N        17.4929484882       17.5860880785        8.9396275744
  C        17.2377826598       17.3141258258       10.2599032503
  N         5.0241113693        6.7136588451        2.9979424913
  C         5.2970912317        6.4548146372        1.6783291915
  N         5.1480842951       17.5533106326       13.8552518075
  C         5.4193048330       17.2797393662       12.5392380992
  N        17.4431691422       15.9532415506        3.0913146670
  C        17.1987123149       16.2437852146        1.7721628783
  N        17.4022111976        5.3034139337       13.8328328710
  C        17.1245627315        5.5472791352       12.5119737848
  N         5.1074795313       16.0015335056       19.7132919352
  C         5.3626447993       16.2691742104       21.0341347086
  N         5.0783614638        5.1480519758        8.8637001337
  C         5.3492744407        5.4287542241       10.1787089157
  N        17.5256050955       19.7726767793       16.0451775069
  C        17.2373650534       21.0912482899       16.2910705772
  N        17.3973090095        8.8790971710        5.1737599506
  C        17.1255853503       10.1899530041        5.4775109020
  N         5.0709185522        3.0314253390       15.9804030739
  C         5.3448017086        1.7153511263       16.2573889947
  N         5.0701238575       13.8183679821        5.1854286065
  C         5.3426421737       12.4996539824        5.4477968137
  N        17.4680637656        3.0167498234        6.7194770832
  C        17.2105898479        1.6957148771        6.4555254750
  N        17.5231461586       13.8992110213       17.6162316601
  C        17.2542263035       12.5837205702       17.3310323640
  N         5.0693834267       19.6786219850        6.7640460637
  C         5.3205284732       20.9969575294        6.4795839756
  N         5.1050165931        8.9031233799       17.5186784296
  C         5.3986577273       10.2185395709       17.2637704649
  N        19.5830441290        6.7563991530        5.2014146788
  C        20.9007473320        6.4883895489        5.4735389760
  N         8.7915727487        6.6693580531       15.9372750668
  C        10.1062542294        6.3926497342       16.2156116650
  N         2.9272951817        6.7593778369       17.5253762429
  C         1.6087774924        6.4921194428       17.2581643421
  N        13.7124274212        6.6061055691        6.6090347517
  C        12.3951419739        6.3381821207        6.3411513635
  N         2.9205440591       15.9702146080        5.2019789237
  C         1.6036664241       16.2404615552        5.4781571870
  N        13.8196935609       16.1108216099       16.1113999917
  C        12.4977397862       16.3708401398       16.3713665328
  N        19.6702847704       16.0467710300       17.6024140695
  C        20.9871477295       16.2999932883       17.3155831245
  N         8.7919992575       15.9370263007        6.6706262753
  C        10.1068103400       16.2153624303        6.3944746161
  N         6.6157486232       17.5460084812        3.0430557817
  C         6.3522664220       17.2808192719        1.7244084742
  N         6.6246002204        6.7419534761       13.8121871236
  C         6.3589772058        6.4622484500       12.4947177820
  N         6.6034856034        5.1885925619       19.6823490328
  C         6.3213662328        5.4498576537       20.9975963250
  N         6.6909900606       15.9918295993        8.8935970356
  C         6.4337122867       16.2673067014       10.2147437054
  N        15.9865367781       17.6183563424       19.7785418188
  C        16.2331489245       17.3181461636       21.0936943605
  N        15.8169627590        6.7083852095        8.8433596787
  C        16.0946555932        6.4821460479       10.1674918056
  N        15.9393792851        5.1353623107        2.9946691606
  C        16.2111288033        5.4232921608        1.6832590545
  N        15.9679680088       16.0612108219       13.9156223150
  C        16.2396761658       16.3148362885       12.5945500891
 Zn        14.6648307197       14.8208609887       14.8207366516
 Br        13.1342241573       13.6390372648       13.6329776397
 Zn        14.6520983203        3.7957584988        3.7960089441
 Br        13.3988871932        2.4539042786        2.4543753093
 Zn         3.7814519252       14.6863957834        3.8956313576
 Br         2.4513169114       13.3911392481        2.5764007764
 Zn         3.7812951846        3.8955226753       14.6869688975
 Br         2.4510718482        2.5764234618       13.3915833840
 Zn         7.9462434300        8.0058904114       14.6737802635
 Br         9.2260474096        9.3190821515       13.3251067881
 Zn         7.9057344854       18.8393451412        3.8975226820
 Br         9.2200737655       20.1608543405        2.5892758558
 Zn        18.7218287238        8.0363902034        3.8959929155
 Br        20.0382112484        9.3623145100        2.5977118026
 Zn        18.8199572185       18.9057150108       14.7596121403
 Br        20.1285247445       20.2204416805       13.4384150280
 Zn         7.9462670430       14.6732316639        8.0062988702
 Br         9.2258954866       13.3248228354        9.3199541421
 Zn         7.9051789372        3.8971870453       18.8402422304
 Br         9.2196366613        2.5888705535       20.1615270121
 Zn        18.8199106142       14.7597015779       18.9055844989
 Br        20.1283661054       13.4381311178       20.2200414512
 Zn        18.7202347171        3.8970975774        8.0386591055
 Br        20.0358397761        2.5992792073        9.3655708448
 Zn        14.5087636707        7.9080505747        7.9051918540
 Br        12.9106347512        9.0676886106        9.0242235666
 Zn        14.7027397702       18.9381918789       18.9381900407
 Br        13.4073768129       20.2615095024       20.2616489268
 Zn         3.7924543652        8.0613503045       18.8069096793
 Br         2.4833228924        9.3815790045       20.1207947735
 Zn         3.7926185209       18.8066008870        8.0613400837
 Br         2.4835492095       20.1206648558        9.3814778234
 Zn        14.5799001014       14.7926463980        8.1057450589
 Br        12.9794306121       14.1266390458        9.5850099468
 Zn        14.6202730325        3.9044680680       18.8550207475
 Br        13.3198660527        2.5757439739       20.1646518222
 Zn         3.8397699652       14.7009336515       18.8362692028
 Br         2.5192677497       13.3834172329       20.1430364172
 Zn         3.7576467832        3.8777600229        8.0170751859
 Br         2.4413546979        2.5748963321        9.3429347455
 Zn         7.9459785760        7.9537812270        7.9541659541
 Br         9.2017611987        9.2953741012        9.2974075476
 Zn         7.9287571862       18.8883194550       18.8883949715
 Br         9.2122827433       20.2187954598       20.2188395616
 Zn        18.7773006301        8.0565416964       18.8649658031
 Br        20.1075127842        9.3387807821       20.1944143852
 Zn        18.7771378487       18.8642966490        8.0566119583
 Br        20.1071221664       20.1940179836        9.3389557773
 Zn        14.5767155946        8.1064235160       14.7982747786
 Br        12.9725118355        9.5889891307       14.1475294725
 Zn        14.6201679717       18.8535127503        3.9052048099
 Br        13.3196550514       20.1635740205        2.5768397539
 Zn         3.7573989965        8.0167842010        3.8784959587
 Br         2.4415065912        9.3428132846        2.5754427965
 Zn         3.8397961045       18.8361939205       14.7009495126
 Br         2.5193667951       20.1429974730       13.3833998081
 Zn         8.0298555750       14.7551437659       14.7553167317
 Br         9.2983400900       13.4174561152       13.4178991677
 Zn         7.8394524832        3.8150693575        3.8151119927
 Br         9.1349754365        2.4915212502        2.4916289019
 Zn        18.7118470242       14.6621923205        3.9868767113
 Br        20.0056527216       13.3202845598        2.6779913039
 Zn        18.7107624968        3.9881661350       14.6619603581
 Br        20.0040353986        2.6794727130       13.3193881860
 Zn         5.8521726668        5.9653485778       16.7509236365
 Zn        16.7494645727       16.8570832353       16.8568719694
 Zn        16.6554684641        5.9072054274        5.9068354771
 Zn         5.8524402567       16.7502779141        5.9654871198
 Zn         5.8303768906        5.9179174678        5.9185016395
 Zn        16.6678491308       16.7770931768        6.0158883390
 Zn         5.9133153615       16.7864425807       16.7865441915
 Zn        16.6675658733        6.0158273265       16.7777449241
  N         3.6701033108        5.9785751998       16.7469873869
  N        14.4586665003        5.8320421129        5.8331510667
  N        18.9238983721       16.8333834255       16.8333351131
  N         8.0393929406       16.7449584951        5.9307418584
  N        18.8362855436        5.9765180563        5.9774164983
  N         8.0387944988        5.9301767002       16.7457008135
  N         3.6703818905       16.7466912212        5.9786031005
  N        14.5556024275       16.8915964545       16.8918454604
  N        16.6992776428        3.7513153220        5.9212279306
  N        16.7441213906       14.6547826894       16.8475333815
  N        16.7669854609       19.0298411149       16.8456388316
  N        16.6076615448        8.1134189816        5.9196725787
  N         5.8449706578       18.9333702006        5.9822021059
  N         5.8873456269        8.1519222273       16.7495644797
  N         5.8409464519        3.7839241244       16.7610059355
  N         5.8468637740       14.5618282990        5.9678088152
  N         5.8412625244       16.7604228969        3.7840755099
  N         5.8466550569        5.9676479084       14.5622471113
  N        16.7669610403       16.8456877946       19.0297322225
  N        16.6045337143        5.9223322906        8.1141274263
  N         5.8445367741        5.9820819182       18.9337965826
  N         5.8873807172       16.7491792254        8.1520662836
  N        16.6997691844        5.9199830692        3.7512258714
  N        16.7443204395       16.8478211456       14.6547228804
  N         5.7869070523        3.7394435246        5.9162230571
  N         5.9420254289       14.6042070026       16.7946553642
  N        16.7039824576       18.9496699797        5.9820966284
  N        16.7095267861        8.1998830431       16.8092720822
  N         5.8810598418       18.9751306954       16.7917248188
  N         5.8632429424        8.1094693166        5.9124957445
  N        16.6641274019        3.8353906172       16.7337504115
  N        16.6289529756       14.5680046627        6.0900779417
  N         3.7296969752       16.7627142434       16.7627609701
  N        14.4905513280       16.8013709690        5.9627557618
  N        18.8597038825       16.7521761517        6.0146196956
  N         8.1009053965       16.8273038846       16.8274145101
  N        18.8594031835        6.0149535441       16.7521586942
  N         8.0065290112        5.8736740935        5.8742228376
  N         3.6457216580        5.9609224825        5.9614440070
  N        14.4898591861        5.9610945600       16.8028412553
  N        16.7039591873        5.9818833547       18.9498053686
  N        16.7092857845       16.8080591631        8.1998202608
  N        16.6644710399       16.7335693037        3.8352822180
  N        16.6268070139        6.0916633501       14.5687944371
  N         5.7867313005        5.9160186727        3.7398442631
  N         5.9420853364       16.7945788670       14.6043289249
  N         5.8810590841       16.7916887972       18.9752541336
  N         5.8629684290        5.9121925203        8.1098866577
  C        11.3470417659       15.8107347597       15.8113595168
  H        11.3688405812       15.0356625336       15.0363055261
  C        11.2183707913        4.7834982701        4.7840364316
  H        11.2039642225        4.0088025298        4.0082420995
  C         0.4391239578       15.6870564821        4.9393253729
  H         0.4356657124       14.9079390400        4.1675623282
  C         0.4388479854        4.9395160050       15.6870093776
  H         0.4354620214        4.1678082793       14.9078349226
  C        11.2667459939        6.9174786558       15.6480477017
  H        11.2677887266        7.6687129572       14.8508536023
  C        11.2616865652       17.8451341935        4.8956989386
  H        11.2600632345       18.6495860193        4.1505628514
  C         0.4213322342        7.0361660091        4.9216510430
  H         0.4222136834        7.8106597894        4.1450468560
  C         0.5064760627       17.8514568981       15.7353757648
  H         0.5069161015       18.6269932682       14.9598323608
  C        11.2672191792       15.6481871859        6.9202043382
  H        11.2681618455       14.8511906711        7.6717123521
  C        11.2607458672        4.8944467562       17.8462794184
  H        11.2588916105        4.1497446331       18.6511040722
  C         0.5064485052       15.7353559331       17.8514443000
  H         0.5068729695       14.9597961301       18.6269659924
  C         0.4214774369        4.9212236840        7.0373556336
  H         0.4226273905        4.1448783166        7.8120715484
  C        11.2419471607        6.8932924761        6.8973604671
  H        11.2584832508        7.6680218562        7.6720821588
  C        11.3068996891       17.9232169878       17.9233257268
  H        11.2886888099       18.6985516051       18.6984967473
  C         0.4516929083        7.0422455598       17.8140842784
  H         0.4561873509        7.8128206980       18.5945799240
  C         0.4519827837       17.8139021475        7.0422919766
  H         0.4565191626       18.5943207493        7.8129494004
  C        15.6868626643       11.4406009535       15.7545812545
  H        14.8993963023       11.4503235247       14.9925354156
  C        15.6680525543        0.5200672999        4.8773760588
  H        14.9026290302        0.5122763318        4.0916266282
  C         4.7942448740       11.3418920020        4.8915264593
  H         4.0155062744       11.3455515257        4.1193317270
  C         4.8088725032        0.5479660340       15.7084132756
  H         4.0404800820        0.5378454300       14.9260434642
  C        15.5478300107       11.3145621302        7.0598151877
  H        14.7602194157       11.2797023227        7.8200626088
  C        15.6703354008        0.6144176059       17.8510096615
  H        14.9037043180        0.6180024793       18.6355801971
  C         4.8499963580       11.3799669408       17.8113668907
  H         4.0599493015       11.3819528375       18.5721513919
  C         4.7670129786        0.5181132489        7.0256880242
  H         4.0037230748        0.5188549876        7.8131434687
  C         7.0043360288       11.3761088601       15.7379491349
  H         7.7919327135       11.3753506254       14.9748446237
  C         6.8508417829        0.5150059638        4.8779294033
  H         7.6152292696        0.5145126890        4.0913889270
  C        17.6798900394       11.3654943484        4.9678195652
  H        18.4611388876       11.3904261059        4.1977595921
  C        17.7608092317        0.6097561567       15.7105121632
  H        18.5278207880        0.6054159011       14.9268175314
  C         6.9164229851       11.3297760385        6.9981374669
  H         7.6930106314       11.3267650665        7.7725310231
  C         6.9032801439        0.5714210078       17.8446799890
  H         7.6712340660        0.5818459172       18.6277393194
  C        17.7956969675       11.4144553526       17.8717119941
  H        18.5674227456       11.4030303438       18.6509481786
  C        17.7569654100        0.5417519292        7.0217392925
  H        18.5231817971        0.5492234233        7.8063696760
  C        15.6862834099       15.7546015470       11.4407951838
  H        14.8988372139       14.9924936162       11.4507799660
  C        15.6678811390        4.8769674597        0.5199972744
  H        14.9023427607        4.0913445879        0.5120762390
  C         4.8089395876       15.7082379377        0.5480659270
  H         4.0405261514       14.9258922266        0.5379148397
  C         4.7940655133        4.8912217528       11.3423338839
  H         4.0154416799        4.1189182954       11.3460291866
  C         7.0043432706       15.7377214055       11.3762806173
  H         7.7918970378       14.9745722283       11.3755108273
  C         6.8504818952        4.8778172354        0.5153506042
  H         7.6148339396        4.0912429491        0.5147726060
  C        17.7610176337       15.7106434860        0.6095732920
  H        18.5280961530       14.9270086890        0.6052550270
  C        17.6772099718        4.9700841837       11.3659020451
  H        18.4585637227        4.2000591333       11.3904832583
  C        15.5453809915        7.0621242298       11.3156599446
  H        14.7587007101        7.8232501583       11.2814947249
  C        15.6702632788       17.8508883076        0.6143882527
  H        14.9035406747       18.6353668553        0.6180185138
  C         4.7667876071        7.0257259132        0.5185786170
  H         4.0035556242        7.8132376364        0.5193664287
  C         4.8501316854       17.8112768109       11.3800536630
  H         4.0601232388       18.5721029898       11.3820160961
  C         6.9158494039        6.9982131897       11.3301427263
  H         7.6923252284        7.7727221706       11.3270372009
  C         6.9034024814       17.8444344470        0.5715964269
  H         7.6713718702       18.6274801301        0.5820459149
  C        17.7572487244        7.0210177421        0.5418714480
  H        18.5235871440        7.8055464425        0.5495176478
  C        17.7953872994       17.8715070631       11.4140958189
  H        18.5672061514       18.6506589478       11.4024430923
 Kr        13.9833930356       11.2797965226       11.2971575117
