     409
 i =     176, E =    -5136.7020639326
  N         2.9171942876        5.2020702016       15.9733123514
  C         1.6002070387        5.4785310160       16.2424817648
  N        13.7105921698        5.0768040396        5.0770044300
  C        12.3892818713        5.3435991455        5.3444684387
  N        19.6618161900       17.5982345939       16.0430246878
  C        20.9791368550       17.3139778317       16.2983997401
  N         8.7791507410       17.5469704736        5.1748532685
  C        10.0990758695       17.2681807818        5.4266589936
  N        19.5759531860        5.2040358762        6.7605253849
  C        20.8936082869        5.4746238847        6.4910202354
  N         8.7786704448        5.1744973303       17.5475845903
  C        10.0986287969        5.4258874832       17.2686466481
  N         2.9238678786       17.5275155977        6.7599485958
  C         1.6053535965       17.2594920913        6.4928867358
  N        13.7922707947       17.6520155795       17.6520572480
  C        12.4751715050       17.3755527150       17.3757169902
  N        15.9308457527        2.9989661660        5.1432088428
  C        16.2040717799        1.6867534761        5.4279204180
  N        15.9531340238       13.9098913418       16.0539495119
  C        16.2247444376       12.5895866929       16.3091467940
  N        15.9750896139       19.7738466392       17.6138900790
  C        16.2251873192       21.0893277614       17.3164757398
  N        15.8122158611        8.8509542161        6.7145616584
  C        16.0921365887       10.1737865934        6.4841214070
  N         6.6035095738       19.6852563464        5.1893499546
  C         6.3205664802       21.0007572817        5.4505164087
  N         6.6848859777        8.8936755076       15.9929555666
  C         6.4272563506       10.2145944530       16.2685144225
  N         6.6139673752        3.0428211519       17.5484661291
  C         6.3500733801        1.7241494288       17.2829449353
  N         6.6209788247       13.8136331917        6.7416287723
  C         6.3545985459       12.4963329756        6.4620456568
  N         5.0686299202       15.9831287499        3.0320256402
  C         5.3422951669       16.2595810363        1.7158667549
  N         5.0663857118        5.1846860150       13.8213719047
  C         5.3378484057        5.4471677265       12.5023459794
  N        17.5148106501       16.0414371451       19.7668863714
  C        17.2299041381       16.2898324884       21.0860825298
  N        17.3866876413        5.1826318491        8.8807289196
  C        17.1175407048        5.4827074066       10.1926636896
  N         5.0665695844        6.7627959825       19.6815644924
  C         5.3177530984        6.4789536624       21.0000963086
  N         5.1012401734       17.5214992877        8.9028223528
  C         5.3935709364       17.2659283906       10.2183759169
  N        17.4620751161        6.7232354551        3.0191341119
  C        17.2048275159        6.4576010263        1.6982666152
  N        17.5111471428       17.6068881566       13.8950758053
  C        17.2408882303       17.3237513357       12.5794505385
  N         5.0196080907        3.0001880726        6.7159344173
  C         5.2938628155        1.6809725082        6.4559206836
  N         5.1414686966       13.8549741483       17.5546128816
  C         5.4127023384       12.5388468671       17.2814880708
  N        17.4739589971       19.7025885463        6.7591620732
  C        17.2095996987       21.0182423532        6.4752571538
  N        17.4798212596        8.9360237023       17.5800369522
  C        17.2241647228       10.2564011616       17.3090072916
  N         5.1030006241       19.7138774116       16.0025895391
  C         5.3589480821       21.0345224708       16.2705920339
  N         5.0705975699        8.8655442473        5.1501242641
  C         5.3428672953       10.1805650792        5.4294994282
  N        17.4406317998        3.0873843752       15.9548778871
  C        17.1948125505        1.7682334661       16.2452055626
  N        17.4053222857       13.8332826536        5.2948825190
  C        17.1263134345       12.5132612213        5.5415968198
  N         2.9755540331       15.9924337070       17.5473237737
  C         1.6585125830       16.2735220630       17.2890377788
  N        13.7413797990       15.9842077804        6.7148776254
  C        12.4233961507       16.2370475680        6.4259762194
  N        19.5976057597       15.9654347414        5.2388059062
  C        20.9180105718       16.2386457542        5.4945315931
  N         8.8553187221       16.0540084767       16.0542323088
  C        10.1669962219       16.3392779948       16.3395567673
  N        19.6089168004        6.7775235368       17.5374241258
  C        20.9242121785        6.5015777015       17.2628697796
  N         8.7624783126        6.6541138995        6.6552831136
  C        10.0738186654        6.3707097757        6.3722936596
  N         2.8918072839        6.7442183804        5.1893153009
  C         1.5743269327        6.4828670398        5.4677448607
  N        13.7409901548        6.7136424982       15.9846020457
  C        12.4230066009        6.4246273537       16.2373075740
  N        15.9307273014        5.1910454073       19.6923646205
  C        16.2039848309        5.4496206817       21.0100230042
  N        15.9227447413       16.0245813824        8.9493792707
  C        16.2075103929       16.2935160960       10.2662065057
  N        15.9042455259       17.5289363078        3.0830076010
  C        16.1912819547       17.2726259570        1.7677420979
  N        15.8422263390        6.8499370062       13.8159429911
  C        16.1032626679        6.5538398549       12.4998152721
  N         6.5537648694        5.1394880447        2.9933708274
  C         6.2951060562        5.4263474093        1.6785627448
  N         6.7243171469       16.0260469831       13.8601265598
  C         6.4463378853       16.2837962603       12.5398062278
  N         6.6397363318       17.5760829228       19.7305394930
  C         6.3635331404       17.2970594996       21.0448205565
  N         6.6382734651        6.6933716009        8.8522083930
  C         6.3643301542        6.4390822861       10.1732883183
  N        19.6091616476       17.5372580868        6.7774304924
  C        20.9244523015       17.2627773180        6.5015237665
  N         8.8246068216       17.6100036923       17.6100488337
  C        10.1491520677       17.3546317639       17.3547750466
  N         2.8918747794        5.1890370339        6.7446406788
  C         1.5743385837        5.4674007320        6.4833647168
  N        13.7396420397        5.2028357383       17.5825623456
  C        12.4217670203        5.4418230419       17.2845472019
  N         2.9755620508       17.5472932361       15.9924486915
  C         1.6585176111       17.2890244522       16.2735313049
  N        13.7400507810       17.5817296477        5.2035540022
  C        12.4222034186       17.2839635557        5.4428073704
  N        19.5972505389        5.2392529129       15.9652874492
  C        20.9177279937        5.4947496340       16.2385738568
  N         8.7393059254        5.0992913740        5.0994495912
  C        10.0627817549        5.3561795515        5.3569721010
  N         6.6397066471       19.7304535573       17.5761317787
  C         6.3634650019       21.0447206347       17.2971517069
  N         6.6386923597        8.8519289520        6.6933785720
  C         6.3647390507       10.1730235958        6.4390948656
  N         6.5539172156        2.9931558408        5.1396048548
  C         6.2953020615        1.6783187286        5.4264152967
  N         6.7242603364       13.8600105922       16.0261306461
  C         6.4462728773       12.5397007629       16.2838962755
  N        15.9041612775        3.0830399717       17.5291187843
  C        16.1912573121        1.7677869558       17.2726725163
  N        15.8437357503       13.8155963010        6.8487095466
  C        16.1049542449       12.4994683907        6.5524808387
  N        15.9307960474       19.6922605043        5.1912428570
  C        16.2040364660       21.0098894985        5.4499204399
  N        15.9227765836        8.9492729778       16.0250920077
  C        16.2076722700       10.2661526054       16.2937659413
  N        17.4739377442        6.7589123593       19.7027480886
  C        17.2096215306        6.4748986804       21.0183946122
  N        17.4798041319       17.5795112986        8.9359786010
  C        17.2240292243       17.3087227147       10.2563363954
  N         5.0195054996        6.7158486428        3.0005049452
  C         5.2937091118        6.4558854317        1.6812787381
  N         5.1415495414       17.5545603938       13.8550466071
  C         5.4127932440       17.2814225751       12.5389196756
  N        17.4409846667       15.9550001901        3.0871332395
  C        17.1949765191       16.2453184163        1.7680768592
  N        17.4037535254        5.2960339369       13.8333320382
  C        17.1245418651        5.5428983215       12.5133787175
  N         5.1030052235       16.0025646772       19.7139469547
  C         5.3589952710       16.2705152615       21.0346060893
  N         5.0704986510        5.1497763119        8.8658408616
  C         5.3426376473        5.4293090071       10.1808534093
  N        17.5147895193       19.7670085269       16.0413631208
  C        17.2298550480       21.0861798931       16.2897816751
  N        17.3886531667        8.8806966221        5.1808665638
  C        17.1195481976       10.1925674333        5.4810646969
  N         5.0684289655        3.0319436522       15.9834497471
  C         5.3421463625        1.7157716063       16.2597968200
  N         5.0665411851       13.8210655861        5.1848385346
  C         5.3380811903       12.5020581487        5.4472848858
  N        17.4616542309        3.0191588247        6.7242705565
  C        17.2046577979        1.6982069069        6.4583824595
  N        17.5110934825       13.8951864394       17.6067889801
  C        17.2409746646       12.5795392977       17.3237223756
  N         5.0668348135       19.6812896512        6.7628051795
  C         5.3180050198       20.9998019606        6.4789462049
  N         5.1011268799        8.9027422205       17.5216488859
  C         5.3934790171       10.2183026193       17.2660448935
  N        19.5760416671        6.7596458374        5.2042076444
  C        20.8936221329        6.4902527381        5.4750173813
  N         8.7868415161        6.6768054869       15.9403356498
  C        10.1021734807        6.4040560747       16.2180791744
  N         2.9236244249        6.7599355796       17.5276875319
  C         1.6051179710        6.4928996892       17.2596140667
  N        13.7062798122        6.6306737219        6.6320576438
  C        12.3908352475        6.3586908608        6.3603881158
  N         2.9174569122       15.9731673782        5.2020508076
  C         1.6004646509       16.2423997537        5.4784647681
  N        13.8079194201       16.0967371329       16.0970983751
  C        12.4875757036       16.3597625331       16.3601143887
  N        19.6618116677       16.0430330787       17.5982085184
  C        20.9791333540       16.2984044146       17.3139636414
  N         8.7871144247       15.9401780385        6.6776549560
  C        10.1025338689       16.2179288955        6.4052160390
  N         6.6142264998       17.5481013945        3.0429418380
  C         6.3502510333       17.2827007595        1.7242683736
  N         6.6206967641        6.7415945906       13.8139068745
  C         6.3542685576        6.4620281976       12.4966026635
  N         6.6031228304        5.1892423807       19.6855301803
  C         6.3202474888        5.4504622940       21.0010346860
  N         6.6848508939       15.9926399032        8.8938259704
  C         6.4272676637       16.2683174750       10.2147101862
  N        15.9750422359       17.6138765684       19.7737857599
  C        16.2251599674       17.3164677824       21.0892854589
  N        15.8102447362        6.7166709522        8.8512523348
  C        16.0902258050        6.4859160701       10.1740316580
  N        15.9309334180        5.1425706947        2.9990079210
  C        16.2040673141        5.4273445282        1.6868153492
  N        15.9530954263       16.0541629099       13.9100135143
  C        16.2245641814       16.3092395112       12.5896287903
 Zn        14.6502501207       14.8017990912       14.8017270066
 Br        13.1720057337       13.5799235640       13.5769756404
 Zn        14.6429098570        3.8122446059        3.8127284141
 Br        13.3844260803        2.4717576421        2.4722065483
 Zn         3.7785739333       14.6910099623        3.8954526853
 Br         2.4495313756       13.3941423835        2.5763846095
 Zn         3.7784025864        3.8953733835       14.6914056193
 Br         2.4493142515        2.5764008351       13.3944391617
 Zn         7.9405883601        8.0078393563       14.6735154928
 Br         9.2200480265        9.3234492114       13.3274065034
 Zn         7.9051880564       18.8400325857        3.8985773812
 Br         9.2195653237       20.1615142673        2.5904799968
 Zn        18.7149464086        8.0421792987        3.9001205096
 Br        20.0313702593        9.3672115078        2.6012197999
 Zn        18.8084624023       18.8963780938       14.7559899280
 Br        20.1161376604       20.2123320871       13.4344722977
 Zn         7.9406264632       14.6731214688        8.0081400802
 Br         9.2202028723       13.3273059528        9.3239652368
 Zn         7.9048208748        3.8983586064       18.8406351053
 Br         9.2191951905        2.5901775283       20.1620138468
 Zn        18.8084168436       14.7560224414       18.8963055978
 Br        20.1160380916       13.4343001689       20.2121138467
 Zn        18.7138612394        3.9009395380        8.0435105531
 Br        20.0296997994        2.6024470493        9.3693926363
 Zn        14.4996965986        7.9415975332        7.9391390306
 Br        12.9744896851        9.1459308056        9.1237649098
 Zn        14.6893669406       18.9312115141       18.9312001163
 Br        13.3909000941       20.2527890792       20.2529146881
 Zn         3.7898432217        8.0605408775       18.8106446984
 Br         2.4797444638        9.3809968874       20.1233253314
 Zn         3.7899804190       18.8104698993        8.0605446563
 Br         2.4799139809       20.1232557959        9.3809208395
 Zn        14.5709195223       14.7723257519        8.1073058281
 Br        13.0284594437       13.9267453117        9.5564014218
 Zn        14.6162689687        3.9081118167       18.8479087531
 Br        13.3143415198        2.5818597808       20.1601977600
 Zn         3.8348687246       14.7023736875       18.8373735004
 Br         2.5142537337       13.3850770866       20.1444634695
 Zn         3.7485683294        3.8790237970        8.0177676073
 Br         2.4349304702        2.5744789557        9.3440430798
 Zn         7.9364276575        7.9598627171        7.9601684688
 Br         9.2028046292        9.2967081416        9.2979958630
 Zn         7.9254650034       18.8864350590       18.8864729403
 Br         9.2120119086       20.2153764987       20.2154027980
 Zn        18.7703202325        8.0572667301       18.8590271078
 Br        20.0974910237        9.3432654224       20.1882625804
 Zn        18.7703609859       18.8584407800        8.0573136663
 Br        20.0972779100       20.1879060012        9.3434140482
 Zn        14.5693977406        8.1076763372       14.7738849251
 Br        13.0236826071        9.5591239313       13.9381041823
 Zn        14.6162897537       18.8471057704        3.9085956922
 Br        13.3141952117       20.1594977815        2.5825488170
 Zn         3.7484815862        8.0175703580        3.8795155610
 Br         2.4350771442        9.3439972159        2.5748824532
 Zn         3.8348878188       18.8373170452       14.7023715549
 Br         2.5143330709       20.1444142705       13.3850342211
 Zn         8.0172308467       14.7511582479       14.7513225561
 Br         9.2956495715       13.4184173169       13.4187138380
 Zn         7.8406752637        3.8264599874        3.8264871456
 Br         9.1356423391        2.5018928386        2.5019568943
 Zn        18.7109952561       14.6632419439        3.9808220497
 Br        20.0065806130       13.3233117244        2.6722864004
 Zn        18.7101876972        3.9820161119       14.6630487643
 Br        20.0053603490        2.6734522195       13.3227295921
 Zn         5.8494134935        5.9655425237       16.7539845134
 Zn        16.7315684871       16.8439419346       16.8438526445
 Zn        16.6485070079        5.9190351421        5.9185099036
 Zn         5.8495839143       16.7536167190        5.9656597506
 Zn         5.8228522500        5.9247149726        5.9251817885
 Zn        16.6652111359       16.7743841917        6.0149020509
 Zn         5.9060197448       16.7865401680       16.7866101825
 Zn        16.6648971656        6.0149882808       16.7747665264
  N         3.6667732268        5.9786852010       16.7500746690
  N        14.4554451547        5.8565042860        5.8569388876
  N        18.9150540252       16.8281078224       16.8280785880
  N         8.0362127235       16.7453322997        5.9329843501
  N        18.8293253181        5.9804779669        5.9810149755
  N         8.0358358731        5.9325450675       16.7458184810
  N         3.6670214249       16.7499066125        5.9787195629
  N        14.5464975628       16.8769108139       16.8770621132
  N        16.6914058037        3.7550322383        5.9286480785
  N        16.7308957958       14.6497697170       16.8382462036
  N        16.7539545665       19.0243105999       16.8400382032
  N        16.5980005293        8.1185071659        5.9298527530
  N         5.8435635502       18.9364515737        5.9817903329
  N         5.8828132277        8.1518922753       16.7515861359
  N         5.8391061639        3.7841111408       16.7636225244
  N         5.8434837548       14.5640670100        5.9673282376
  N         5.8393664990       16.7632249892        3.7842205115
  N         5.8432875565        5.9672021602       14.5643474671
  N        16.7539258392       16.8400791979       19.0242344956
  N        16.5961537356        5.9318325985        8.1186542713
  N         5.8432390401        5.9816898151       18.9367357806
  N         5.8828529793       16.7513189706        8.1519945812
  N        16.6917273802        5.9277179032        3.7550426800
  N        16.7309664707       16.8384311815       14.6497483358
  N         5.7837279679        3.7434163269        5.9209301068
  N         5.9340039265       14.6039228961       16.7942315300
  N        16.6992853168       18.9507782428        5.9823512109
  N        16.6931430545        8.1966870146       16.8044348527
  N         5.8768587248       18.9751869200       16.7917984520
  N         5.8543593151        8.1120730223        5.9156170676
  N        16.6617108531        3.8320042205       16.7344474504
  N        16.6302504238       14.5714858414        6.0817985568
  N         3.7225149197       16.7642759111       16.7642943874
  N        14.4866928851       16.7961680448        5.9742727575
  N        18.8561688674       16.7516245166        6.0137101610
  N         8.0932630312       16.8243237628       16.8244163752
  N        18.8558908183        6.0140439030       16.7516438354
  N         8.0041413044        5.8829688153        5.8833445545
  N         3.6385506943        5.9616596846        5.9620473333
  N        14.4862775998        5.9734312121       16.7969282201
  N        16.6991920595        5.9821429901       18.9509390310
  N        16.6931992336       16.8037688009        8.1966791792
  N        16.6620060939       16.7343538371        3.8319052805
  N        16.6288463282        6.0828712618       14.5717074479
  N         5.7836408718        5.9207814464        3.7436975203
  N         5.9340539230       16.7941761673       14.6040108380
  N         5.8768632333       16.7917913689       18.9752718585
  N         5.8541343732        5.9153709224        8.1123664396
  C        11.3358939257       15.8010304716       15.8014519946
  H        11.3541211319       15.0257869758       15.0262524159
  C        11.2203057167        4.8000835585        4.8005650760
  H        11.2088926475        4.0249746552        4.0247749404
  C         0.4362904418       15.6887654441        4.9390170249
  H         0.4331666802       14.9100079735        4.1668390373
  C         0.4360032055        4.9392012555       15.6887304426
  H         0.4329095774        4.1670753172       14.9099264284
  C        11.2617619677        6.9362013344       15.6539383825
  H        11.2626591156        7.6895663484       14.8580212075
  C        11.2603334587       17.8413171179        4.9008495366
  H        11.2600705823       18.6432481913        4.1527819215
  C         0.4142007090        7.0373802327        4.9224754832
  H         0.4151092649        7.8120524041        4.1460814117
  C         0.4987169687       17.8511805438       15.7353519072
  H         0.4991827090       18.6266359788       14.9597605510
  C        11.2620744609       15.6539995444        6.9378104504
  H        11.2629231905       14.8581945640        7.6913323570
  C        11.2598291146        4.9000984301       17.8419783990
  H        11.2594203265        4.1522918833       18.6441475018
  C         0.4987047303       15.7353430943       17.8511811093
  H         0.4991651860       14.9597406456       18.6266341916
  C         0.4142671168        4.9222396236        7.0381428817
  H         0.4153438928        4.1460336735        7.8129753971
  C        11.2365064085        6.9126196149        6.9149246447
  H        11.2488033579        7.6875889393        7.6899989241
  C        11.3024575791       17.9145034230       17.9145871310
  H        11.2869943575       18.6899531521       18.6899217959
  C         0.4475440604        7.0434254413       17.8142505079
  H         0.4514652878        7.8144696540       18.5942760018
  C         0.4477916046       17.8140929766        7.0434497917
  H         0.4517159944       18.5940509152        7.8145559177
  C        15.6691285512       11.4358712746       15.7512422223
  H        14.8833673762       11.4454680648       14.9869818210
  C        15.6618444112        0.5228561786        4.8805371338
  H        14.8959873291        0.5153803000        4.0953058540
  C         4.7889190901       11.3445844584        4.8911415418
  H         4.0104532054       11.3486217192        4.1186997315
  C         4.8053866723        0.5489163961       15.7105712384
  H         4.0365589930        0.5394920108       14.9285540556
  C        15.5448225443       11.3240148210        7.0614707275
  H        14.7586089314       11.2949485185        7.8239279595
  C        15.6643663933        0.6107755688       17.8503492925
  H        14.8973434156        0.6150034638       18.6344941897
  C         4.8447328768       11.3795252622       17.8140131395
  H         4.0553514689       11.3812805931       18.5754922220
  C         4.7633004203        0.5203774863        7.0249849825
  H         3.9990942091        0.5200970642        7.8115701744
  C         6.9967359078       11.3761078093       15.7379327871
  H         7.7837288749       11.3755521259       14.9741905779
  C         6.8498817010        0.5195426533        4.8803224122
  H         7.6150256566        0.5198394697        4.0945327045
  C        17.6766731412       11.3649718070        4.9673747428
  H        18.4578007604       11.3854388883        4.1973039884
  C        17.7556443425        0.6049619657       15.7114080212
  H        18.5229138909        0.6006677122       14.9279502767
  C         6.9104771408       11.3317317982        6.9985750069
  H         7.6870367300       11.3280954977        7.7730324669
  C         6.9011271106        0.5708100861       17.8455362228
  H         7.6694620663        0.5805728462       18.6281829907
  C        17.7833932240       11.4107672168       17.8643845873
  H        18.5568316114       11.4000474793       18.6420204514
  C        17.7518647055        0.5433580409        7.0227262099
  H        18.5184412342        0.5506384930        7.8069909632
  C        15.6688485079       15.7512279525       11.4360012728
  H        14.8831165231       14.9869118200       11.4457398551
  C        15.6617117896        4.8801597178        0.5228540986
  H        14.8957707461        4.0950177076        0.5153027048
  C         4.8054666446       15.7104472544        0.5489862835
  H         4.0366178073       14.9284463569        0.5395467805
  C         4.7887437733        4.8909354668       11.3448916880
  H         4.0103681830        4.1184135195       11.3489543981
  C         6.9967560292       15.7377643573       11.3762375167
  H         7.7837185035       14.9739885248       11.3756776193
  C         6.8496082449        4.8802362778        0.5197596748
  H         7.6147189111        4.0944173492        0.5199975297
  C        17.7558108561       15.7115189010        0.6047963814
  H        18.5231397086       14.9281100104        0.6005229987
  C        17.6747289372        4.9688328764       11.3648946594
  H        18.4558790902        4.1987689657       11.3851653542
  C        15.5431564122        7.0631113859       11.3243749864
  H        14.7574689841        7.8260671477       11.2957907130
  C        15.6643039693       17.8502703422        0.6107340833
  H        14.8972117772       18.6343413726        0.6150091129
  C         4.7631302669        7.0250096970        0.5206950287
  H         3.9989652677        7.8116419152        0.5204581580
  C         4.8448583200       17.8139556687       11.3795926473
  H         4.0555128047       18.5754676564       11.3813304315
  C         6.9100226447        6.9986388090       11.3319884435
  H         7.6865046272        7.7731765093       11.3282971703
  C         6.9012495319       17.8453619577        0.5709202187
  H         7.6695951635       18.6279976441        0.5806975219
  C        17.7520321048        7.0221384416        0.5434680055
  H        18.5186986601        7.8063374812        0.5508872138
  C        17.7832845370       17.8642470581       11.4106282854
  H        18.5567677695       18.6418266609       11.3997495038
 Kr        14.8388596245       11.2844056026       11.2951705204
