     409
 i =     176, E =    -5136.6812522758
  N         2.9218828104        5.2020613469       15.9699585554
  C         1.6050159019        5.4781477781       16.2402292173
  N        13.7123944169        5.0495975869        5.0497443990
  C        12.3928372005        5.3211311337        5.3224048745
  N        19.6730345545       17.6046548828       16.0485390907
  C        20.9897238518       17.3164312018       16.3007706979
  N         8.7819884118       17.5488054084        5.1733943942
  C        10.1027361620       17.2696381823        5.4199253180
  N        19.5868478501        5.1990692283        6.7558610630
  C        20.9046124257        5.4718790751        6.4886955273
  N         8.7813247844        5.1729603551       17.5498170350
  C        10.1020987579        5.4187976256       17.2703807589
  N         2.9292148396       17.5246237784        6.7593716270
  C         1.6107340601       17.2576997582        6.4919747568
  N        13.8008337719       17.6686335559       17.6686765708
  C        12.4851548882       17.3885348834       17.3887685375
  N        15.9417404165        2.9937057382        5.1342805654
  C        16.2128808491        1.6824485771        5.4228941806
  N        15.9774977466       13.9173357904       16.0657667693
  C        16.2483566397       12.5958400715       16.3189375891
  N        15.9891798849       19.7800545129       17.6202156205
  C        16.2346687416       21.0950239822       17.3191724855
  N        15.8323179079        8.8397860373        6.6990478652
  C        16.1056950207       10.1649385542        6.4743168216
  N         6.6048216575       19.6813240437        5.1886020786
  C         6.3227711561       20.9966744411        5.4496278967
  N         6.6929156850        8.8933324789       15.9918202165
  C         6.4356985738       10.2145521716       16.2670239178
  N         6.6164347612        3.0428203507       17.5459914964
  C         6.3531434122        1.7240813460       17.2808677166
  N         6.6264966770       13.8118283888        6.7423956678
  C         6.3611021925       12.4943581473        6.4628015009
  N         5.0721704922       15.9793475972        3.0311519400
  C         5.3460321161       16.2567656615        1.7151366951
  N         5.0715028637        5.1855606817       13.8185674282
  C         5.3441233405        5.4481054687       12.4999020701
  N        17.5285290538       16.0476158589       19.7743075004
  C        17.2390632038       16.2923706361       21.0925801798
  N        17.4031697005        5.1694246933        8.8802245586
  C        17.1299835624        5.4743847434       10.1907166761
  N         5.0701748425        6.7641621624       19.6787592606
  C         5.3213705441        6.4794968883       20.9970679068
  N         5.1066921741       17.5177291615        8.9034541981
  C         5.4005144482       17.2628197487       10.2188705233
  N        17.4716869923        6.7156273683        3.0155292745
  C        17.2129003567        6.4531747595        1.6948000248
  N        17.5299563736       17.6232106539       13.8996304109
  C        17.2607939323       17.3367932542       12.5844536174
  N         5.0267739132        2.9971904694        6.7136809627
  C         5.2991609549        1.6775738370        6.4545578876
  N         5.1507237937       13.8555049719       17.5523099885
  C         5.4215920433       12.5394022894       17.2787959104
  N        17.4800998790       19.7019646069        6.7582942350
  C        17.2158846513       21.0167086113        6.4738229155
  N        17.5010361556        8.9411811191       17.5921615039
  C        17.2453827515       10.2610872955       17.3191796341
  N         5.1094996986       19.7126888443       16.0013578136
  C         5.3641913166       21.0335483115       16.2692192850
  N         5.0816043797        8.8631125776        5.1490640912
  C         5.3520717328       10.1781423303        5.4296817516
  N        17.4439004188        3.0921917119       15.9536410273
  C        17.1994120673        1.7731317390       16.2439792642
  N        17.4079396835       13.8327819690        5.2997001174
  C        17.1312170709       12.5115775329        5.5422571396
  N         2.9850893032       15.9907416297       17.5453735944
  C         1.6682861685       16.2724694501       17.2879643966
  N        13.7521765793       15.9837843825        6.6906998548
  C        12.4317273506       16.2343921529        6.4075515220
  N        19.6024076986       15.9653436727        5.2397632041
  C        20.9230832720       16.2378966214        5.4945652331
  N         8.8707077151       16.0581812327       16.0584853966
  C        10.1812663665       16.3469008732       16.3473110356
  N        19.6150029454        6.7757936393       17.5399089785
  C        20.9298508322        6.5002414519       17.2633687819
  N         8.7723323296        6.6430099029        6.6450788340
  C        10.0818994796        6.3542435312        6.3569964233
  N         2.9027566396        6.7437648583        5.1889528432
  C         1.5853064917        6.4821361336        5.4673104664
  N        13.7516905414        6.6882332529       15.9840197523
  C        12.4312121577        6.4051719794       16.2345063977
  N        15.9380215051        5.1897060835       19.6909194390
  C        16.2110462547        5.4478768388       21.0078051623
  N        15.9540060239       16.0287264035        8.9519811166
  C        16.2331124092       16.2990719845       10.2705676125
  N        15.9089766104       17.5293509774        3.0864840623
  C        16.1966193328       17.2722380926        1.7719963030
  N        15.8443638212        6.8563151433       13.8086154603
  C        16.1072666507        6.5554708116       12.4932786960
  N         6.5567913235        5.1336276179        2.9877799560
  C         6.2981758412        5.4229901923        1.6737689681
  N         6.7369128633       16.0263900876       13.8607945948
  C         6.4569631961       16.2827090110       12.5403134090
  N         6.6450933769       17.5761144273       19.7308766225
  C         6.3680640875       17.2963350399       21.0449201940
  N         6.6497561611        6.6911142591        8.8497749021
  C         6.3738876820        6.4387800001       10.1711510773
  N        19.6152831064       17.5398241055        6.7757446634
  C        20.9301296604       17.2633295790        6.5002126873
  N         8.8328057324       17.6139495444       17.6140031129
  C        10.1586577094       17.3619063940       17.3621085964
  N         2.9028528900        5.1884221702        6.7445320130
  C         1.5853749256        5.4666723774        6.4830177911
  N        13.7420875118        5.1924958997       17.5944011505
  C        12.4257680646        5.4306160811       17.2892751561
  N         2.9850996839       17.5453404676       15.9907762416
  C         1.6683004701       17.2879473165       16.2724957504
  N        13.7427107485       17.5930652695        5.1936138151
  C        12.4263909379       17.2884358594        5.4321658674
  N        19.6020319213        5.2402680275       15.9650158756
  C        20.9227786563        5.4948066817       16.2377179968
  N         8.7404816496        5.0880618398        5.0881640689
  C        10.0653010598        5.3407111683        5.3418975440
  N         6.6450601288       19.7307295676       17.5761996621
  C         6.3680053550       21.0447776691       17.2964802344
  N         6.6503587239        8.8493603555        6.6911101459
  C         6.3744246147       10.1707422045        6.4388056571
  N         6.5570326066        2.9874395707        5.1338298153
  C         6.2984577761        1.6733934691        5.4230977500
  N         6.7368544291       13.8606337055       16.0265002220
  C         6.4568966163       12.5401596207       16.2828494556
  N        15.9089277320        3.0865653542       17.5295596906
  C        16.1966155860        1.7721066837       17.2722691791
  N        15.8466057037       13.8077959349        6.8543267360
  C        16.1097521292       12.4923669745        6.5532295645
  N        15.9380594869       19.6908329268        5.1898656838
  C        16.2110508844       21.0077612494        5.4481507175
  N        15.9547696231        8.9518612232       16.0293118430
  C        16.2337782156       10.2705275338       16.2992911813
  N        17.4801423780        6.7580187904       19.7020641234
  C        17.2159937365        6.4734281425       21.0167822763
  N        17.5006702177       17.5913481401        8.9409461673
  C        17.2449233271       17.3187752690       10.2608881375
  N         5.0265837367        6.7135198076        2.9976927355
  C         5.2989246233        6.4544938606        1.6780416569
  N         5.1508115047       17.5522354281       13.8556075674
  C         5.4216916784       17.2786957576       12.5395179747
  N        17.4443277307       15.9538887618        3.0918812599
  C        17.1996114026       16.2441784100        1.7729037437
  N        17.4057278730        5.3014683334       13.8330533539
  C        17.1287343810        5.5443717223       12.5119374093
  N         5.1094936903       16.0013052964       19.7127906542
  C         5.3642226997       16.2690957414       21.0336620568
  N         5.0815280506        5.1485244483        8.8635807484
  C         5.3518173224        5.4293792712       10.1785988021
  N        17.5285004163       19.7744731291       16.0475097082
  C        17.2390175435       21.0927432146       16.2922837752
  N        17.4066848911        8.8801526742        5.1663608171
  C        17.1330165957       10.1903623594        5.4715880398
  N         5.0719396079        3.0310291105       15.9798340803
  C         5.3458842528        1.7150083822       16.2570926520
  N         5.0716465807       13.8180875443        5.1857749696
  C         5.3443751531       12.4994431886        5.4482849026
  N        17.4708900124        3.0156937760        6.7170856120
  C        17.2125299333        1.6948799483        6.4541883302
  N        17.5297793061       13.8999029987       17.6230481809
  C        17.2609666421       12.5846590353       17.3367452076
  N         5.0705069477       19.6783109458        6.7641609331
  C         5.3216950283       20.9966123153        6.4794827453
  N         5.1065707776        8.9033454811       17.5179609561
  C         5.4004194587       10.2187553213       17.2629980606
  N        19.5869843192        6.7542378470        5.1994709490
  C        20.9046178258        6.4872974643        5.4726515583
  N         8.7943159927        6.6687138442       15.9364635958
  C        10.1089627365        6.3910500560       16.2150180344
  N         2.9289090699        6.7593462383       17.5249197240
  C         1.6104477693        6.4919820609       17.2578860305
  N        13.7193928287        6.6007069566        6.6040136489
  C        12.4006160159        6.3355160410        6.3387173778
  N         2.9221456890       15.9697060766        5.2020362921
  C         1.6052946092       16.2401080053        5.4780766048
  N        13.8259341634       16.1146451632       16.1152842786
  C        12.5030174605       16.3727699619       16.3733333446
  N        19.6730078512       16.0485714401       17.6045653439
  C        20.9897194715       16.3007798242       17.3163894903
  N         8.7946950847       15.9362466188        6.6700179872
  C        10.1094450044       16.2148649201        6.3928829267
  N         6.6167413181       17.5454550054        3.0430064672
  C         6.3533297760       17.2805088942        1.7242512765
  N         6.6261595337        6.7423617333       13.8122433275
  C         6.3607042912        6.4627681204       12.4947772719
  N         6.6043079133        5.1884427022       19.6817799961
  C         6.3223482880        5.4495565550       20.9971013290
  N         6.6928292344       15.9913799024        8.8935349670
  C         6.4356880887       16.2667405370       10.2147267870
  N        15.9891120105       17.6202103595       19.7799428384
  C        16.2346239512       17.3191693035       21.0949144784
  N        15.8283737194        6.7018146986        8.8408723304
  C        16.1025943892        6.4770655740       10.1657804430
  N        15.9419052616        5.1334949312        2.9935820642
  C        16.2129145630        5.4222110270        1.6823460246
  N        15.9774934970       16.0661374109       13.9175297136
  C        16.2479790052       16.3191554118       12.5959127994
 Zn        14.6815225059       14.8296799176       14.8295395880
 Br        13.1631859344       13.6486987902       13.6417070142
 Zn        14.6539466741        3.7927652355        3.7929449884
 Br        13.4020711500        2.4505068720        2.4509622432
 Zn         3.7825696624       14.6856599346        3.8956024363
 Br         2.4524500658       13.3902745085        2.5766012192
 Zn         3.7824227181        3.8954942269       14.6862673817
 Br         2.4521943106        2.5766366692       13.3907493149
 Zn         7.9484899280        8.0059355815       14.6736302236
 Br         9.2323483338        9.3174609283       13.3262046675
 Zn         7.9065883655       18.8387736860        3.8975650747
 Br         9.2206627489       20.1605795480        2.5892515791
 Zn        18.7276015480        8.0322814020        3.8919620044
 Br        20.0436806237        9.3589530395        2.5939519730
 Zn        18.8239372493       18.9120192113       14.7616619788
 Br        20.1338403257       20.2252594989       13.4407652681
 Zn         7.9484828630       14.6730625190        8.0063484566
 Br         9.2319281262       13.3258032685        9.3184206817
 Zn         7.9060764454        3.8972599981       18.8396421568
 Br         9.2202208789        2.5888454280       20.1612507927
 Zn        18.8238843064       14.7617477125       18.9118759667
 Br        20.1336860287       13.4404928459       20.2248334880
 Zn        18.7255922223        3.8931828872        8.0346776979
 Br        20.0408139503        2.5958083700        9.3625749711
 Zn        14.5358328564        7.8954829425        7.8925310505
 Br        12.9436683393        9.0520846968        9.0002165135
 Zn        14.7049698044       18.9403037213       18.9402792719
 Br        13.4101914330       20.2638380108       20.2639395350
 Zn         3.7936387158        8.0615605953       18.8062265478
 Br         2.4849017889        9.3817887444       20.1204324029
 Zn         3.7938074524       18.8058840358        8.0615504522
 Br         2.4851418188       20.1203001911        9.3816832895
 Zn        14.5947863073       14.8059854457        8.0989823039
 Br        12.9933369851       14.1933749648        9.5933079279
 Zn        14.6216985068        3.9032103172       18.8579634566
 Br        13.3213022679        2.5738036341       20.1663744949
 Zn         3.8416322913       14.7006977261       18.8355799833
 Br         2.5215444216       13.3829292592       20.1424776587
 Zn         3.7622258265        3.8776390512        8.0173322230
 Br         2.4445295050        2.5756118741        9.3428614629
 Zn         7.9494223071        7.9537451657        7.9541482879
 Br         9.2132464831        9.2920419236        9.2942580369
 Zn         7.9318686805       18.8879812158       18.8880617697
 Br         9.2139494666       20.2190776131       20.2191287378
 Zn        18.7813241822        8.0554348645       18.8684725458
 Br        20.1125081871        9.3365040704       20.1978184528
 Zn        18.7811507385       18.8678861868        8.0554837462
 Br        20.1120785277       20.1975215373        9.3366773462
 Zn        14.5928216584        8.0997766308       14.8098832489
 Br        12.9864606979        9.5977450595       14.2180504980
 Zn        14.6216433550       18.8566896685        3.9037989047
 Br        13.3209710758       20.1654232952        2.5748563154
 Zn         3.7619327632        8.0169876506        3.8784488802
 Br         2.4447035817        9.3427069964        2.5762056929
 Zn         3.8416624427       18.8355027630       14.7007219027
 Br         2.5216525667       20.1424445197       13.3829180291
 Zn         8.0364803187       14.7550432529       14.7552282470
 Br         9.3070416559       13.4181805255       13.4186662862
 Zn         7.8410530690        3.8147619481        3.8148123026
 Br         9.1361948632        2.4909721951        2.4910999941
 Zn        18.7141263337       14.6631816361        3.9851591255
 Br        20.0079004436       13.3207479106        2.6768418012
 Zn        18.7131470844        3.9865204886       14.6629312314
 Br        20.0062228260        2.6784825782       13.3196059752
 Zn         5.8536053897        5.9653878797       16.7504642255
 Zn        16.7566571358       16.8612556856       16.8610736169
 Zn        16.6600246203        5.9036597865        5.9031850891
 Zn         5.8538415549       16.7497397544        5.9655286029
 Zn         5.8333309903        5.9178549588        5.9184749311
 Zn        16.6704996259       16.7790052805        6.0148380720
 Zn         5.9172336800       16.7858578155       16.7859670239
 Zn        16.6701390299        6.0148323768       16.7798041137
  N         3.6717093107        5.9785711463       16.7463716310
  N        14.4626946093        5.8257769479        5.8270221354
  N        18.9269356659       16.8360083079       16.8359796247
  N         8.0413806959       16.7442620891        5.9310462442
  N        18.8402547783        5.9737695128        5.9748389948
  N         8.0408696113        5.9305046447       16.7450017157
  N         3.6720000448       16.7460524170        5.9786109571
  N        14.5599140190       16.8960478705       16.8963215187
  N        16.7023756495        3.7501223798        5.9185287243
  N        16.7524286231       14.6560882568       16.8536583150
  N        16.7706152941       19.0315537061       16.8480382858
  N        16.6194484184        8.1127582779        5.9121606411
  N         5.8460014977       18.9329502986        5.9822007860
  N         5.8889067219        8.1520061298       16.7490611405
  N         5.8420996439        3.7837114277       16.7604705462
  N         5.8483024353       14.5616873240        5.9680946306
  N         5.8424079445       16.7598597241        3.7838604624
  N         5.8481038636        5.9679459305       14.5621389400
  N        16.7705910496       16.8480949324       19.0314059384
  N        16.6156588114        5.9148956303        8.1133807743
  N         5.8455639868        5.9820871601       18.9334007400
  N         5.8889426275       16.7486566430        8.1521582629
  N        16.7029473873        5.9172246038        3.7499855098
  N        16.7526848392       16.8539709041       14.6560310437
  N         5.7894592959        3.7391047783        5.9160432905
  N         5.9453244108       14.6042922750       16.7939119117
  N        16.7058489600       18.9496373952        5.9814427752
  N        16.7200813408        8.2004813076       16.8129094294
  N         5.8835909136       18.9747672709       16.7915284792
  N         5.8664697011        8.1094301808        5.9129258536
  N        16.6656309097        3.8360157018       16.7343103604
  N        16.6326987968       14.5675927807        6.0885552661
  N         3.7321809334       16.7621453109       16.7622087531
  N        14.4929946671       16.8041764189        5.9573165323
  N        18.8616156040       16.7533511477        6.0132936396
  N         8.1048732857       16.8268450139       16.8269562727
  N        18.8613040602        6.0136870595       16.7532769500
  N         8.0099133767        5.8738268720        5.8744158088
  N         3.6493560237        5.9612060812        5.9617617323
  N        14.4924408592        5.9557256127       16.8051998344
  N        16.7058290766        5.9812840164       18.9497505816
  N        16.7195797378       16.8119744467        8.2004186526
  N        16.6659955726       16.7342036836        3.8358569353
  N        16.6307746628        6.0900704669       14.5681523701
  N         5.7892776600        5.9157971542        3.7395283803
  N         5.9453900320       16.7938243484       14.6044258897
  N         5.8835835554       16.7914817426       18.9748882135
  N         5.8661842190        5.9125811389        8.1098850106
  C        11.3527673259       15.8118993419       15.8125644402
  H        11.3750212886       15.0368848579       15.0375670716
  C        11.2202510903        4.7818632173        4.7823867431
  H        11.2047823406        4.0072535686        4.0066267321
  C         0.4407796714       15.6868310262        4.9391367124
  H         0.4372398532       14.9076610615        4.1674165166
  C         0.4405036571        4.9393444442       15.6867494157
  H         0.4370544328        4.1676809240       14.9075154945
  C        11.2702846442        6.9138626239       15.6468621335
  H        11.2711366038        7.6645119529       14.8493540202
  C        11.2625568400       17.8462360763        4.8947718291
  H        11.2602643043       18.6512169066        4.1502516235
  C         0.4250631586        7.0357638771        4.9212407463
  H         0.4257163278        7.8101728185        4.1445870075
  C         0.5089746147       17.8516356720       15.7354958143
  H         0.5093261685       18.6271945945       14.9599882713
  C        11.2707101848       15.6472570089        6.9166558450
  H        11.2716684090       14.8499903710        7.6676487716
  C        11.2618232846        4.8937049170       17.8472769415
  H        11.2593571217        4.1496416146       18.6526687799
  C         0.5089427219       15.7354717510       17.8516154551
  H         0.5092745725       14.9599437044       18.6271584139
  C         0.4252098005        4.9207622005        7.0370909493
  H         0.4261708758        4.1443888833        7.8117534640
  C        11.2475360562        6.8911694313        6.8955637388
  H        11.2642439875        7.6657578023        7.6700951721
  C        11.3095001551       17.9243454761       17.9244508330
  H        11.2902563357       18.6996552931       18.6995876678
  C         0.4534612005        7.0418701749       17.8141376817
  H         0.4578718886        7.8123564121       18.5947332751
  C         0.4537797489       17.8139587138        7.0419348304
  H         0.4582429651       18.5944578253        7.8125102046
  C        15.6964173435       11.4419638309       15.7573623472
  H        14.9092301403       11.4522723110       14.9950637671
  C        15.6692341895        0.5193756610        4.8766871233
  H        14.9037724241        0.5114666730        4.0910190534
  C         4.7962964558       11.3415442503        4.8920613565
  H         4.0175720365       11.3448499081        4.1198394352
  C         4.8101790514        0.5473977891       15.7083364250
  H         4.0417983476        0.5370476432       14.9259526317
  C        15.5537983905       11.3115887511        7.0554879359
  H        14.7653828264       11.2736466420        7.8146096604
  C        15.6712502479        0.6154809812       17.8515165883
  H        14.9046187497        0.6190275369       18.6360995670
  C         4.8519389520       11.3803982461       17.8103158251
  H         4.0617613283       11.3826467331       18.5709994489
  C         4.7685380788        0.5179567119        7.0255313999
  H         4.0053673192        0.5190083731        7.8131082283
  C         7.0067426958       11.3758986925       15.7374307229
  H         7.7945844376       11.3748176825       14.9746155358
  C         6.8519870879        0.5142972151        4.8773917389
  H         7.6162648610        0.5135402076        4.0907507865
  C        17.6852274034       11.3671811349        4.9630816917
  H        18.4660927050       11.3940126814        4.1928245722
  C        17.7621364544        0.6108226252       15.7109740446
  H        18.5292608711        0.6063009443       14.9273620203
  C         6.9184584797       11.3300123481        6.9987861329
  H         7.6951960216       11.3273807642        7.7730376507
  C         6.9045607685        0.5714024948       17.8445298874
  H         7.6724870837        0.5820858695       18.6275920947
  C        17.8016657360       11.4152972697       17.8775364886
  H        18.5724709121       11.4034106817       18.6574806034
  C        17.7587733725        0.5413701812        7.0210030702
  H        18.5251105515        0.5489362237        7.8055211061
  C        15.6956490706       15.7575533601       11.4421526625
  H        14.9084723370       14.9951914228       11.4526841751
  C        15.6690785016        4.8763181976        0.5192726900
  H        14.9034753240        4.0907866410        0.5112463822
  C         4.8102464345       15.7081475248        0.5474968772
  H         4.0418431527       14.9257854171        0.5371151438
  C         4.7961267543        4.8917389972       11.3420283181
  H         4.0175210524        4.1194025647       11.3453721158
  C         7.0067478137       15.7371929390       11.3760791135
  H         7.7945422603       14.9743268884       11.3749805029
  C         6.8516223639        4.8772742218        0.5146583175
  H         7.6158674887        4.0906006606        0.5138154646
  C        17.7623321019       15.7111578944        0.6106113229
  H        18.5295221213       14.9276128413        0.6061445105
  C        17.6824946768        4.9655870449       11.3671800695
  H        18.4634334246        4.1952696568       11.3935496986
  C        15.5512125761        7.0580556849       11.3125724491
  H        14.7636727502        7.8180421495       11.2756385899
  C        15.6711361517       17.8514335963        0.6153836007
  H        14.9044097924       18.6359089162        0.6189585939
  C         4.7683034189        7.0255587681        0.5184511778
  H         4.0051927510        7.8131904567        0.5195506141
  C         4.8520752645       17.8102209754       11.3804958913
  H         4.0619366549       18.5709455455       11.3827198715
  C         6.9178704871        6.9988722042       11.3304013040
  H         7.6944865413        7.7732454042       11.3276623035
  C         6.9046772658       17.8442726917        0.5715782852
  H         7.6726191077       18.6273202162        0.5822891395
  C        17.7591272720        7.0202597760        0.5414326774
  H        18.5256030693        7.8046604727        0.5491811930
  C        17.8014103557       17.8773037104       11.4149445490
  H        18.5723414382       18.6571207433       11.4028361336
 Kr        13.0518644735       11.2976738191       11.3161438687
