     409
 i =     176, E =    -5136.6858599658
  N         2.9624551674        5.2415417390       15.9671424125
  C         1.6412818476        5.4948814122       16.2378461954
  N        13.8114086994        5.0847326772        5.0848526408
  C        12.4873148232        5.3403626319        5.3409902622
  N        19.5889933633       17.5389481878       15.9838036196
  C        20.9059547203       17.2842702905       16.2687484081
  N         8.8207264292       17.5982463900        5.1991013695
  C        10.1367763323       17.2903500203        5.4356902992
  N        19.6497733795        5.1798834871        6.7363514150
  C        20.9672261779        5.4620507291        6.4781980249
  N         8.8209611194        5.1985650380       17.5987942372
  C        10.1370083010        5.4349626674       17.2906918415
  N         2.9458609826       17.5407586269        6.7783554834
  C         1.6315285910       17.2630134638        6.5007442322
  N        13.7462926740       17.6090401898       17.6091103023
  C        12.4203330987       17.3575047752       17.3576209302
  N        15.9945264606        2.9784293407        5.1266082946
  C        16.2547867510        1.6644176122        5.4157725964
  N        15.8369664703       13.8556224354       16.0198110152
  C        16.1145012800       12.5349650841       16.2761139399
  N        15.9327183607       19.7260727490       17.5704981801
  C        16.2066195803       21.0402085360       17.2889243102
  N        15.9066968467        8.8424483866        6.6857451941
  C        16.1837994833       10.1635636932        6.4341822031
  N         6.6234393675       19.6967877243        5.1969362909
  C         6.3478360613       21.0131533681        5.4546712472
  N         6.6091980802        8.9554733614       16.0342594177
  C         6.3327368821       10.2745761639       16.3052092316
  N         6.6564146580        3.0928427550       17.5376582812
  C         6.3720663321        1.7775549253       17.2807638221
  N         6.7146405518       13.8117266413        6.8554980021
  C         6.4501760054       12.4961538761        6.5556153541
  N         5.1211533337       15.9618588506        3.0942962415
  C         5.3688911421       16.2530328465        1.7760825351
  N         5.1555143771        5.3010981764       13.8374218748
  C         5.4303719600        5.5454133747       12.5163462301
  N        17.4657541841       15.9936381942       19.7089263709
  C        17.2091708183       16.2604376490       21.0298378773
  N        17.4738495148        5.1419235477        8.8557344939
  C        17.2055708560        5.4241423300       10.1707562455
  N         5.0795107514        6.7632198189       19.7054811075
  C         5.3420372166        6.4792690190       21.0207235764
  N         5.0625116737       17.5961665180        8.9461614094
  C         5.3212912500       17.3249125015       10.2659958549
  N        17.5249141563        6.7061771880        2.9899649860
  C        17.2542156469        6.4470918981        1.6701450672
  N        17.4219176213       17.5459982696       13.8483899529
  C        17.1493789259       17.2722285279       12.5327044111
  N         5.0821203940        3.0197180211        6.7219350555
  C         5.3421140206        1.6990030708        6.4594791492
  N         5.0429549961       13.9055169335       17.6308744426
  C         5.3099678836       12.5900243230       17.3440902433
  N        17.4902385052       19.6708902496        6.7574414662
  C        17.2366257496       20.9888859781        6.4726695968
  N        17.4567935412        8.8965794370       17.5106185257
  C        17.1657103133       10.2123593062       17.2558528906
  N         5.0494412930       19.7772784276       16.0557793561
  C         5.3359873867       21.0957574855       16.3016067625
  N         5.1471717003        8.8855356677        5.1702262737
  C         5.4231418372       10.1952558210        5.4751271338
  N        17.4925642673        3.0278462217       15.9671485437
  C        17.2220042005        1.7114365004       16.2461683281
  N        17.4907614439       13.8094818014        5.1845108930
  C        17.2161890939       12.4912505076        5.4457822665
  N         2.9019634600       16.0549930562       17.6108951145
  C         1.5851705164       16.3035433576       17.3191194580
  N        13.7670398963       15.9287837984        6.6679996875
  C        12.4524509320       16.2104594506        6.3932778591
  N        19.6426533866       15.9619165074        5.1984596317
  C        20.9589111658       16.2353686257        5.4751366645
  N         8.7512268008       16.1133903201       16.1136447724
  C        10.0744357763       16.3703658730       16.3706053203
  N        19.6319152159        6.7542859398       17.5185841243
  C        20.9510404142        6.4883583715       17.2537735376
  N         8.8364099836        6.6061208924        6.6076001278
  C        10.1546023897        6.3394566574        6.3409647347
  N         2.9661932709        6.7587952926        5.2031340416
  C         1.6484164976        6.4890336047        5.4738438623
  N        13.7671774128        6.6673883430       15.9288554508
  C        12.4526248129        6.3924212280       16.2104977014
  N        15.9569571816        5.1813748167       19.6717469057
  C        16.2360329991        5.4424899407       20.9876502394
  N        15.8711652078       15.9839457863        8.8896072145
  C        16.1307293480       16.2594798589       10.2101597239
  N        15.9481445218       17.5337915407        3.0380626826
  C        16.2151095929       17.2703230489        1.7196579987
  N        15.9351773649        6.7405478230       13.8043226619
  C        16.1994297386        6.4600723094       12.4869076864
  N         6.6111951722        5.1387727817        2.9988092229
  C         6.3417845466        5.4281104091        1.6875033635
  N         6.5945018857       16.0730248465       13.9215367759
  C         6.3223363747       16.3259791142       12.6000695560
  N         6.5923906812       17.6258998672       19.7849731896
  C         6.3420068552       17.3270875533       21.0999169604
  N         6.7244994850        6.7028982144        8.8433897955
  C         6.4525181577        6.4787187817       10.1690352143
  N        19.6318013067       17.5183677733        6.7543413540
  C        20.9509305066       17.2536365413        6.4883830153
  N         8.7793466164       17.6674346500       17.6674237122
  C        10.0943049643       17.3860648479       17.3861568927
  N         2.9663217598        5.2028802845        6.7595649135
  C         1.6484617911        5.4733815501        6.4897587320
  N        13.7814635252        5.1695823968       17.5402254996
  C        12.4604633093        5.4188142506       17.2648090862
  N         2.9019434361       17.6109010402       16.0549974694
  C         1.5851575381       17.3191022474       16.3035707620
  N        13.7812020469       17.5397703165        5.1697751953
  C        12.4602232433       17.2644855448        5.4193393306
  N        19.6427341246        5.1984506470       15.9620708538
  C        20.9590134711        5.4751523767       16.2354527287
  N         8.8401159678        5.0541341004        5.0541597899
  C        10.1600699493        5.3244659546        5.3250853797
  N         6.5923211984       19.7850211585       17.6258590704
  C         6.3419310932       21.0999617815       17.3270435226
  N         6.7226132009        8.8428994875        6.7014109382
  C         6.4509111704       10.1686771949        6.4773904752
  N         6.6113727130        2.9988795884        5.1389996239
  C         6.3419075845        1.6875590830        5.4283160275
  N         6.5944733753       13.9214750590       16.0728270565
  C         6.3221196481       12.6000527819       16.3258361679
  N        15.9482551196        3.0379592041       17.5340178146
  C        16.2151642793        1.7195632037       17.2704849114
  N        15.9350237736       13.8041307801        6.7405959446
  C        16.1992418540       12.4867060669        6.4601395545
  N        15.9567549039       19.6714582735        5.1815102309
  C        16.2358616804       20.9873663721        5.4425895923
  N        15.8711044218        8.8894456176       15.9842038595
  C        16.1307036008       10.2100107867       16.2596721372
  N        17.4903554602        6.7573901665       19.6711908352
  C        17.2367454102        6.4726123935       20.9891868003
  N        17.4567722372       17.5104255145        8.8966964801
  C        17.1656961656       17.2556992549       10.2124845943
  N         5.0815645057        6.7213546119        3.0196101769
  C         5.3417947719        6.4590970405        1.6989298656
  N         5.0428488810       17.6309259089       13.9053666505
  C         5.3100622575       17.3441226981       12.5899137351
  N        17.4924624183       15.9669264248        3.0279291199
  C        17.2219540263       16.2460082457        1.7115208279
  N        17.4908095606        5.1843710922       13.8097302967
  C        17.2162972384        5.4456390438       12.4914880445
  N         5.0494687725       16.0558703301       19.7772345965
  C         5.3360260362       16.3017008919       21.0956951186
  N         5.1489171887        5.1717848816        8.8855363696
  C         5.4247627970        5.4764692094       10.1953604655
  N        17.4657401661       19.7088512046       15.9937286450
  C        17.2091655463       21.0297608826       16.2605376264
  N        17.4737771575        8.8554938377        5.1423134906
  C        17.2054263755       10.1705219091        5.4243910043
  N         5.1213011117        3.0944366253       15.9616833801
  C         5.3689063752        1.7761810250       16.2528719449
  N         5.1544641949       13.8374033182        5.3002073409
  C         5.4291019970       12.5162501867        5.5443567468
  N        17.5248061050        2.9896298138        6.7062900049
  C        17.2540921441        1.6698264546        6.4471664047
  N        17.4219615084       13.8482659144       17.5460743316
  C        17.1494166439       12.5325787921       17.2723275780
  N         5.0795523140       19.7054882104        6.7633483157
  C         5.3421392240       21.0207435185        6.4794248302
  N         5.0623176567        8.9462994750       17.5965116115
  C         5.3210458771       10.2660999863       17.3250586898
  N        19.6497956568        6.7358593953        5.1803338571
  C        20.9672335742        6.4776619126        5.4625082486
  N         8.8100073965        6.6945897574       15.9884275272
  C        10.1305089711        6.4100451733       16.2362563594
  N         2.9459517244        6.7783914701       17.5407792291
  C         1.6316459540        6.5007499195       17.2630271968
  N        13.7839921987        6.6406415204        6.6416924526
  C        12.4733022038        6.3547773325        6.3561332952
  N         2.9622977080       15.9673318476        5.2412671144
  C         1.6411571719       16.2379498945        5.4947674021
  N        13.7064996677       16.0528954865       16.0530908375
  C        12.3961052307       16.3422691109       16.3424822683
  N        19.5890108511       15.9837165694       17.5390102028
  C        20.9059659313       16.2686813881       17.2843223554
  N         8.8098211198       15.9883780292        6.6957390609
  C        10.1303294374       16.2362487997        6.4111522734
  N         6.6564756321       17.5376227734        3.0928344795
  C         6.3721506241       17.2808094064        1.7775129010
  N         6.7156852074        6.8564938154       13.8120821666
  C         6.4514163027        6.5567153544       12.4965042388
  N         6.6234355432        5.1968464479       19.6968092409
  C         6.3477992112        5.4545659108       21.0131453653
  N         6.6096159368       16.0340580196        8.9555080800
  C         6.3331012230       16.3051752609       10.2745856708
  N        15.9327272722       17.5704125061       19.7261541340
  C        16.2066226094       17.2888247959       21.0402929409
  N        15.9070413950        6.6856546508        8.8426477991
  C        16.1840919207        6.4340858450       10.1637600286
  N        15.9946626351        5.1264462617        2.9786841824
  C        16.2549383632        5.4156674817        1.6646886474
  N        15.8369338550       16.0197070921       13.8557673505
  C        16.1144787156       16.2759943299       12.5351087131
 Zn        14.5404673116       14.7475837796       14.7477799868
 Br        13.2554671332       13.4172562921       13.4175371211
 Zn        14.7117029481        3.8074960447        3.8076044020
 Br        13.4110099867        2.4865929434        2.4866895018
 Zn         3.8508042450       14.6674711074        3.9843937636
 Br         2.5576116666       13.3265552216        2.6745612573
 Zn         3.8513284087        3.9851451596       14.6672685041
 Br         2.5584767132        2.6754689550       13.3258857820
 Zn         7.9648562465        8.1006580626       14.8109101205
 Br         9.5477169280        9.6014084439       14.1746011154
 Zn         7.9419535784       18.8667210276        3.9120747386
 Br         9.2443302818       20.1742910891        2.5837743605
 Zn        18.7891497249        8.0101670204        3.8670527024
 Br        20.1083558542        9.3347899807        2.5662694586
 Zn        18.7298621024       18.8301545068       14.6917374026
 Br        20.0513074377       20.1357098131       13.3740035202
 Zn         7.9639962486       14.8092797488        8.1002750315
 Br         9.5444330843       14.1628505395        9.5990633716
 Zn         7.9418708922        3.9116686794       18.8670803494
 Br         9.2440848827        2.5832793959       20.1746667979
 Zn        18.7298846181       14.6916194219       18.8302132250
 Br        20.0513679011       13.3739289922       20.1357668170
 Zn        18.7890226569        3.8663007879        8.0103628757
 Br        20.1085039542        2.5657864071        9.3349706256
 Zn        14.6083360761        7.9510592341        7.9513203892
 Br        13.3354081095        9.2858609771        9.2870376607
 Zn        14.6514249983       18.8843732438       18.8844453123
 Br        13.3660479611       20.2140766932       20.2141491275
 Zn         3.7786865813        8.0590587867       18.8689255688
 Br         2.4477674254        9.3417596589       20.1972513509
 Zn         3.7787849457       18.8686957763        8.0590643357
 Br         2.4480176495       20.1971768742        9.3418363476
 Zn        14.6124703788       14.6668160389        8.0053933334
 Br        13.3272013741       13.3213210670        9.3180657493
 Zn        14.6564917970        3.8922917006       18.8290643449
 Br        13.3434128592        2.5808979639       20.1488481509
 Zn         3.7498149370       14.7685204413       18.9198494372
 Br         2.4404296396       13.4490478530       20.2345681240
 Zn         3.8272648120        3.8962576357        8.0415186032
 Br         2.5107823049        2.5992501955        9.3683193658
 Zn         8.0161163251        7.8971246355        7.8956437207
 Br         9.5592205295        9.0731953733        9.0493926777
 Zn         7.8839791856       18.9417249757       18.9416766977
 Br         9.1777322727       20.2654576162       20.2654477871
 Zn        18.7671520591        8.0562457720       18.7991963209
 Br        20.0751935921        9.3736955227       20.1170169269
 Zn        18.7671048019       18.7988869606        8.0562941236
 Br        20.0751127787       20.1168377069        9.3736745026
 Zn        14.6124700340        8.0051742157       14.6670375667
 Br        13.3269634183        9.3175971459       13.3215220785
 Zn        14.6563030134       18.8287522388        3.8924448831
 Br        13.3432388288       20.1485729465        2.5810836611
 Zn         3.8258549700        8.0405922415        3.8956869018
 Br         2.5090159510        9.3666724024        2.5982562719
 Zn         3.7497189433       18.9198569593       14.7684693136
 Br         2.4403294601       20.2347508268       13.4491607202
 Zn         7.8874873876       14.8301482117       14.8300789506
 Br         9.3649299657       13.6216845904       13.6188089868
 Zn         7.8994343069        3.7967403625        3.7966989793
 Br         9.1497364713        2.4540469781        2.4541451648
 Zn        18.7818011826       14.6732468372        3.8947659393
 Br        20.1133146073       13.3786855962        2.5766996987
 Zn        18.7818685519        3.8947063077       14.6734635986
 Br        20.1134572040        2.5766535733       13.3789385081
 Zn         5.8913319070        6.0187610967       16.7830922496
 Zn        16.6586215448       16.7806483083       16.7807307746
 Zn        16.7219613818        5.9086337138        5.9088919596
 Zn         5.8911958144       16.7826570032        6.0187225445
 Zn         5.8936340237        5.9075641218        5.9071787158
 Zn        16.7086455837       16.7340977282        5.9606644609
 Zn         5.8280302235       16.8667180369       16.8666515028
 Zn        16.7087351188        5.9605843008       16.7344669612
  N         3.7013527280        6.0164746494       16.7555759395
  N        14.5440406708        5.8697636367        5.8701179213
  N        18.8421746864       16.7539474659       16.7540310211
  N         8.0698177205       16.8106035253        5.9632319446
  N        18.9034444707        5.9510741472        5.9515140476
  N         8.0700218947        5.9624749459       16.8110031086
  N         3.7012284789       16.7556691268        6.0162783942
  N        14.4729535300       16.8212516243       16.8213665187
  N        16.7615316796        3.7308567468        5.9088448808
  N        16.6287998809       14.5983340380       16.7875138209
  N        16.6942529316       18.9703695108       16.7855599136
  N        16.6888172012        8.1020382924        5.9062304104
  N         5.8557028242       18.9542760171        5.9876200753
  N         5.8422447542        8.2049133403       16.8166584006
  N         5.8981529060        3.8402632976       16.7421840864
  N         5.9302709990       14.5718776574        6.0889573644
  N         5.8980668973       16.7422218235        3.8401986470
  N         5.9312375500        6.0897990480       14.5721050319
  N        16.6942656430       16.7854771330       18.9704495969
  N        16.6890035765        5.9059454311        8.1022676419
  N         5.8556874976        5.9875347888       18.9543022056
  N         5.8425118406       16.8162753933        8.2048683929
  N        16.7616368034        5.9086715220        3.7311467030
  N        16.6287621107       16.7874336611       14.5984632126
  N         5.8498332204        3.7546964839        5.9230353103
  N         5.8210342457       14.6609567214       16.8611463554
  N        16.7165460363       18.9239891083        5.9752400367
  N        16.6735356309        8.1465632831       16.7415053193
  N         5.8112423084       19.0355545213       16.8540977345
  N         5.9341259888        8.1169858123        5.9152695252
  N        16.7208233897        3.7795478964       16.7470182459
  N        16.7144903781       14.5532441179        5.9669736488
  N         3.6485070226       16.8443126414       16.8443072940
  N        14.5211211447       16.7342788784        5.9267738110
  N        18.8909178894       16.7377239021        5.9740430537
  N         8.0188739583       16.8955664422       16.8956504424
  N        18.8910305924        5.9739828144       16.7379346514
  N         8.0913381067        5.8312927785        5.8317912051
  N         3.7128229579        5.9793173259        5.9797605176
  N        14.5213087166        5.9265185000       16.7346110108
  N        16.7167070673        5.9751347028       18.9242788302
  N        16.6735530778       16.7412515317        8.1467001603
  N        16.7206904740       16.7467557370        3.7796370331
  N        16.7145715635        5.9668746549       14.5534728662
  N         5.8493753542        5.9225876892        3.7545899962
  N         5.8209053515       16.8612745838       14.6609155712
  N         5.8112918900       16.8541715382       19.0354900833
  N         5.9360546496        5.9167376460        8.1171901353
  C        11.2232821535       15.8081225584       15.8084245026
  H        11.1999690571       15.0330620851       15.0333804685
  C        11.3308103392        4.7831163730        4.7833981289
  H        11.3437864644        4.0081418338        4.0078417856
  C         0.4852571762       15.6845556987        4.9378065538
  H         0.4919136018       14.9052395366        4.1662931554
  C         0.4853418888        4.9379044374       15.6845207929
  H         0.4919489817        4.1664220801       14.9051686911
  C        11.2904655721        6.9181986723       15.6461753472
  H        11.2884073176        7.6690830814       14.8486608472
  C        11.3012460259       17.8446666134        4.8962621618
  H        11.3048972100       18.6496193413        4.1516384795
  C         0.4877427796        7.0344805443        4.9198532922
  H         0.4870994392        7.8090070246        4.1433474892
  C         0.4256609852       17.8508292241       15.7351550454
  H         0.4254702013       18.6263789480       14.9596599696
  C        11.2903020763       15.6463904967        6.9195011616
  H        11.2882059586       14.8489872696        7.6705434832
  C        11.3015368834        4.8957674016       17.8451213325
  H        11.3052591237        4.1513654686       18.6502772096
  C         0.4256908799       15.7351008914       17.8508564414
  H         0.4255236431       14.9595950847       18.6263957363
  C         0.4877293237        4.9194860841        7.0351853136
  H         0.4869735829        4.1431015035        7.8098203538
  C        11.3085034451        6.8945173303        6.8965662356
  H        11.2946687814        7.6693007926        7.6713515369
  C        11.2705810538       17.9209717755       17.9210230358
  H        11.2911773732       18.6962812705       18.6962529091
  C         0.4662526767        7.0401441338       17.8120919157
  H         0.4590667712        7.8105614792       18.5927725439
  C         0.4661349179       17.8119857585        7.0402056138
  H         0.4588978738       18.5926119324        7.8106694725
  C        15.5621164842       11.3723450661       15.7301304105
  H        14.7741603339       11.3730736508       14.9674199936
  C        15.7039166791        0.5039292550        4.8702687978
  H        14.9396336274        0.5011451814        4.0836370929
  C         4.8728548956       11.3725772638        4.9661717130
  H         4.0918664577       11.4005858310        4.1961811241
  C         4.8088674187        0.6123157276       15.7208536285
  H         4.0411016043        0.6053302920       14.9378690700
  C        15.6407900351       11.3226222110        6.9953307653
  H        14.8639982483       11.3201957018        7.7695357622
  C        15.6674496983        0.5660707544       17.8360286186
  H        14.8999984974        0.5754272939       18.6195543194
  C         4.7674261525       11.4211491929       17.8843589410
  H         3.9968563622       11.4102219035       18.6644830440
  C         4.7973096502        0.5447645501        7.0262744284
  H         4.0307243029        0.5510739167        7.8105918683
  C         6.8719634409       11.4454427725       15.7636706092
  H         7.6577858488       11.4550340408       14.9997716391
  C         6.8877915285        0.5253553126        4.8828304975
  H         7.6534062926        0.5186073874        4.0973401286
  C        17.7627122909       11.3335119708        4.8878658285
  H        18.5412252427       11.3367972893        4.1153829405
  C        17.7601053126        0.5443851200       15.6982303896
  H        18.5280486063        0.5349776431       14.9153982745
  C         7.0044103996       11.3147037052        7.0585922037
  H         7.7920471051       11.2754539608        7.8186657652
  C         6.9015890598        0.6223125864       17.8593619427
  H         7.6687813184        0.6286813600       18.6433428068
  C        17.7168145762       11.3725416435       17.8036618558
  H        18.5070502623       11.3728962330       18.5643347504
  C        17.7870963177        0.5114890496        7.0185178085
  H        18.5502777958        0.5146939033        7.8060818570
  C        15.5621296218       15.7299642994       11.3724969154
  H        14.7741949339       14.9672316050       11.3732119943
  C        15.7040878964        4.8701503145        0.5041989458
  H        14.9398248272        4.0835028800        0.5013955616
  C         4.8088411400       15.7209973846        0.6122489354
  H         4.0410427231       14.9380491304        0.6052889629
  C         4.8742590813        4.9673792925       11.3725045945
  H         4.0932313561        4.1974101751       11.4002655389
  C         6.8723942028       15.7638307897       11.4454938953
  H         7.6582217295       14.9999129287       11.4551861974
  C         6.8877925288        4.8827456747        0.5253317186
  H         7.6534877279        4.0973275039        0.5185810935
  C        17.7600894241       15.6981126225        0.5444642491
  H        18.5280362394       14.9152825174        0.5350546153
  C        17.7627900929        4.8876260268       11.3337774047
  H        18.5412389191        4.1150814842       11.3371173710
  C        15.6410949148        6.9953067266       11.3227954100
  H        14.8643653053        7.7695768740       11.3202953799
  C        15.6674341082       17.8359019739        0.5661616337
  H        14.8999823178       18.6194271581        0.5755225686
  C         4.7970492496        7.0259734764        0.5447228659
  H         4.0303878998        7.8102298264        0.5510553633
  C         4.7675581846       17.8842722491       11.4209571066
  H         3.9969175839       18.6643240969       11.4099339264
  C         7.0057544861        7.0598907892       11.3151405010
  H         7.7929475250        7.8203698730       11.2763558112
  C         6.9017196597       17.8593731253        0.6222781898
  H         7.6689582128       18.6432964615        0.6286376107
  C        17.7871906673        7.0184766285        0.5117972355
  H        18.5503371419        7.8060702154        0.5150028606
  C        17.7167736123       17.8035544513       11.3726599800
  H        18.5069936204       18.5642448720       11.3730002675
 Kr        10.0668367693       11.3185024184       11.3265740097
