     409
 i =     176, E =    -5136.6943472091
  N         2.9663191485        5.2429506364       15.9658773762
  C         1.6449528210        5.4955747127       16.2374413607
  N        13.8163106444        5.0844252990        5.0845383822
  C        12.4925825589        5.3411614521        5.3417648282
  N        19.5959409219       17.5399236920       15.9848266894
  C        20.9131366699       17.2847860434       16.2692755820
  N         8.8233159253       17.5936009800        5.2044013237
  C        10.1404854821       17.2887902642        5.4393333091
  N        19.6565139022        5.1795614389        6.7358420480
  C        20.9741747604        5.4621229670        6.4781551642
  N         8.8235801975        5.2037823016       17.5941975043
  C        10.1407431758        5.4385778862       17.2891832813
  N         2.9497343603       17.5387256485        6.7803863397
  C         1.6352219127       17.2622975576        6.5018038515
  N        13.7505626611       17.6099729277       17.6100381506
  C        12.4249315015       17.3576680074       17.3577759923
  N        15.9982836730        2.9791352602        5.1268019249
  C        16.2578700459        1.6650897603        5.4162319499
  N        15.8419585566       13.8564809092       16.0211177805
  C        16.1190837199       12.5357210810       16.2774000075
  N        15.9362125242       19.7260518647       17.5709395076
  C        16.2097184663       21.0401971539       17.2892044484
  N        15.9120053753        8.8422154870        6.6845829347
  C        16.1884610174       10.1634909118        6.4330478275
  N         6.6264855567       19.6974563256        5.1985881290
  C         6.3505294192       21.0141723404        5.4559714755
  N         6.6305614260        8.9550234830       16.0297427823
  C         6.3492773413       10.2727463945       16.3001984425
  N         6.6596548043        3.0932780410       17.5378392615
  C         6.3752598043        1.7776954282       17.2813469844
  N         6.7230944833       13.8144186371        6.8589082530
  C         6.4587219690       12.4988351149        6.5607212019
  N         5.1249215055       15.9613745062        3.0944140597
  C         5.3724446983       16.2531260995        1.7759750885
  N         5.1628565327        5.3047901745       13.8372327975
  C         5.4384668538        5.5506770202       12.5163178925
  N        17.4698768741       15.9946502170       19.7091150535
  C        17.2126146287       16.2610492063       21.0299974785
  N        17.4794576107        5.1411017642        8.8559929891
  C        17.2103234826        5.4231448473       10.1709864275
  N         5.0827802317        6.7649923662       19.7058293629
  C         5.3448752441        6.4808049600       21.0216174534
  N         5.0764861540       17.5867722148        8.9433697034
  C         5.3347504155       17.3169683304       10.2637156687
  N        17.5292518005        6.7060403749        2.9902604547
  C        17.2575814218        6.4473008215        1.6705110934
  N        17.4269853016       17.5472343992       13.8489675982
  C        17.1539495010       17.2735732796       12.5332674473
  N         5.0881258260        3.0218746460        6.7259776795
  C         5.3462558181        1.7009156736        6.4619708869
  N         5.0569704393       13.9035368876       17.6211247290
  C         5.3232920010       12.5876455764       17.3353873571
  N        17.4925467175       19.6713969991        6.7571160951
  C        17.2389674051       20.9893682441        6.4726383608
  N        17.4602075741        8.8969533973       17.5120531966
  C        17.1694841164       10.2127946188       17.2571711218
  N         5.0577692773       19.7759047218       16.0533865277
  C         5.3415593130       21.0948860256       16.3007449852
  N         5.1638272492        8.8843765086        5.1824959454
  C         5.4364520097       10.1951315103        5.4850519056
  N        17.4954148898        3.0279680452       15.9681566040
  C        17.2248000276        1.7115448437       16.2468521947
  N        17.4941786242       13.8100008760        5.1838228569
  C        17.2198807786       12.4916666573        5.4449214039
  N         2.9102894428       16.0519661406       17.6080381982
  C         1.5931376405       16.3021955435       17.3179038973
  N        13.7725329562       15.9304726783        6.6690885736
  C        12.4579214374       16.2116722569        6.3957411641
  N        19.6459398991       15.9628698845        5.1984278039
  C        20.9622520535       16.2360222740        5.4753275481
  N         8.7594781373       16.1085022518       16.1087227906
  C        10.0815427519       16.3679750933       16.3681901170
  N        19.6353001767        6.7543770446       17.5195481108
  C        20.9544534333        6.4886184727       17.2543145829
  N         8.8481157963        6.6150057791        6.6161649105
  C        10.1640032645        6.3439074242        6.3452573704
  N         2.9736029778        6.7627491934        5.2067564648
  C         1.6557843230        6.4910525079        5.4755206169
  N        13.7726555833        6.6685281566       15.9305521754
  C        12.4580959862        6.3949418486       16.2117479422
  N        15.9588324671        5.1814543956       19.6724829560
  C        16.2381086309        5.4427282044       20.9883150901
  N        15.8751173283       15.9849336108        8.8902304501
  C        16.1347569766       16.2605639140       10.2107862060
  N        15.9505765158       17.5344279501        3.0379174032
  C        16.2176346690       17.2707674814        1.7195862335
  N        15.9386993436        6.7398085586       13.8043926002
  C        16.2031580342        6.4591950013       12.4869726833
  N         6.6162868759        5.1421139417        3.0008644816
  C         6.3455878102        5.4301186395        1.6893561061
  N         6.6100506878       16.0642725549       13.9178281900
  C         6.3370050368       16.3184609150       12.5972380587
  N         6.5985714125       17.6252101726       19.7846206171
  C         6.3466048705       17.3271098618       21.0995763443
  N         6.7439399521        6.7149324999        8.8482805181
  C         6.4664546714        6.4880545829       10.1722067956
  N        19.6351804199       17.5193619323        6.7544272684
  C        20.9543405184       17.2541996098        6.4886454910
  N         8.7830611412       17.6630773508       17.6630748519
  C        10.0988296291       17.3836259076       17.3837136216
  N         2.9736965104        5.2067271402        6.7632343347
  C         1.6558265880        5.4752955746        6.4915084302
  N        13.7846796874        5.1690468204       17.5403043026
  C        12.4640904192        5.4199374320       17.2647697550
  N         2.9102722872       17.6080341963       16.0519613434
  C         1.5931261724       17.3178865060       16.3022134719
  N        13.7844047392       17.5398961858        5.1692489158
  C        12.4638326765       17.2644613869        5.4204544180
  N        19.6460399997        5.1984111207       15.9630089151
  C        20.9623594138        5.4753389555       16.2361018198
  N         8.8437746598        5.0621517399        5.0622152397
  C        10.1651959650        5.3289641704        5.3295818704
  N         6.5985062674       19.7846198711       17.6251784184
  C         6.3465367510       21.0995668162       17.3270759227
  N         6.7423564839        8.8480526068        6.7134084928
  C         6.4650371362       10.1720446132        6.4867789687
  N         6.6163782895        3.0009346109        5.1423668931
  C         6.3456358415        1.6894169079        5.4303666017
  N         6.6100293783       13.9177744719       16.0641105925
  C         6.3368237492       12.5972376080       16.3183741357
  N        15.9506847049        3.0378154530       17.5346388601
  C        16.2176892485        1.7194943691       17.2709164602
  N        15.9385500385       13.8042111146        6.7398679410
  C        16.2029768797       12.4867859882        6.4592634977
  N        15.9586418554       19.6722259819        5.1815841988
  C        16.2379479490       20.9880674955        5.4428237053
  N        15.8750617340        8.8900823286       15.9851784649
  C        16.1347321140       10.2106507921       16.2607419195
  N        17.4926554245        6.7570647370       19.6716564082
  C        17.2390807168        6.4725864193       20.9896286251
  N        17.4601826856       17.5118768881        8.8970547258
  C        17.1694686905       17.2570311139       10.2129059318
  N         5.0877859693        6.7254777243        3.0217476484
  C         5.3460861264        6.4615938650        1.7008336763
  N         5.0568974208       17.6211843275       13.9033730371
  C         5.3233912688       17.3354073226       12.5875152825
  N        17.4953155039       15.9679484213        3.0280483410
  C        17.2247489836       16.2467054686        1.7116259977
  N        17.4942356540        5.1836826120       13.8102222041
  C        17.2199903900        5.4447843726       12.4918808882
  N         5.0577972535       16.0534696692       19.7758897325
  C         5.3415857141       16.3008173224       21.0948699401
  N         5.1653454251        5.1838450223        8.8843070758
  C         5.4379184607        5.4862507151       10.1951198067
  N        17.4698633035       19.7090425543       15.9947305420
  C        17.2126112253       21.0299228865       16.2611383754
  N        17.4793746913        8.8557804345        5.1414319971
  C        17.2101765043       10.1707801807        5.4233621676
  N         5.1250936223        3.0944975098       15.9612578634
  C         5.3724840805        1.7760110117       16.2530143701
  N         5.1618385772       13.8372009367        5.3040397398
  C         5.4372787492       12.5162578185        5.5497645010
  N        17.5291680094        2.9899684916        6.7061285179
  C        17.2574755010        1.6702389987        6.4473625691
  N        17.4270258073       13.8488618712       17.5473007689
  C        17.1539845811       12.5331568739       17.2736617181
  N         5.0827881639       19.7058342056        6.7651539721
  C         5.3449106765       21.0216348414        6.4809993950
  N         5.0762565181        8.9435223447       17.5871731274
  C         5.3344863219       10.2638464462       17.3171745940
  N        19.6565105425        6.7354741745        5.1798991498
  C        20.9741643543        6.4777732549        5.4624388954
  N         8.8182782306        6.7051368585       15.9880341812
  C        10.1371380642        6.4160560414       16.2371261658
  N         2.9498447680        6.7804012036       17.5387691217
  C         1.6353423858        6.5017917674       17.2623116695
  N        13.7920851952        6.6402662825        6.6412531897
  C        12.4813412296        6.3555413124        6.3568187205
  N         2.9661444051       15.9660356074        5.2427437118
  C         1.6448138560       16.2375274283        5.4954917594
  N        13.7129315099       16.0539440016       16.0541218525
  C        12.4025071109       16.3425359867       16.3427316376
  N        19.5959556628       15.9847545554       17.5399790449
  C        20.9131474485       16.2692212563       17.2848308007
  N         8.8180860327       15.9877123342        6.7061509713
  C        10.1369332996       16.2369593123        6.4170826129
  N         6.6596793899       17.5377683540        3.0933378913
  C         6.3753192801       17.2813628264        1.7777230286
  N         6.7240959484        6.8597917147       13.8147921208
  C         6.4598714487        6.5617098672       12.4991414205
  N         6.6264899087        5.1984256865       19.6974571022
  C         6.3505237420        5.4558094012       21.0141591570
  N         6.6308441190       16.0293130247        8.9550372364
  C         6.3495786813       16.3000154720       10.2727297199
  N        15.9362200231       17.5708618748       19.7261323146
  C        16.2097204037       17.2891137335       21.0402778718
  N        15.9123325109        6.6845190851        8.8423965623
  C        16.1887411293        6.4329673388       10.1636735193
  N        15.9984024051        5.1266623843        2.9793540088
  C        16.2580041758        5.4161352004        1.6653258245
  N        15.8419312670       16.0210267805       13.8566095630
  C        16.1190650572       16.2772932114       12.5358489931
 Zn        14.5462426427       14.7492264283       14.7493902125
 Br        13.2716246895       13.4147999765       13.4150266632
 Zn        14.7145691083        3.8072431441        3.8073343629
 Br        13.4131586526        2.4868467617        2.4869307626
 Zn         3.8566996067       14.6659410537        3.9874192326
 Br         2.5633993988       13.3260429238        2.6764650149
 Zn         3.8573585710        3.9880251622       14.6657382732
 Br         2.5641164849        2.6772234963       13.3256106548
 Zn         7.9928476954        8.1104114351       14.7910913540
 Br         9.5787338747        9.5828026006       14.0739852341
 Zn         7.9449008168       18.8642360127        3.9169014334
 Br         9.2470778475       20.1720421335        2.5876812202
 Zn        18.7959478735        8.0096554114        3.8670912114
 Br        20.1138052309        9.3345359942        2.5653106867
 Zn        18.7353493079       18.8305559047       14.6935950169
 Br        20.0561632161       20.1363959511       13.3752373120
 Zn         7.9919307889       14.7889865549        8.1100957029
 Br         9.5757154116       14.0649239115        9.5810259327
 Zn         7.9448357994        3.9163378482       18.8646299744
 Br         9.2469248223        2.5871458952       20.1724675962
 Zn        18.7353741082       14.6934985684       18.8306044454
 Br        20.0562200926       13.3751796683       20.1364485824
 Zn        18.7958533665        3.8664805907        8.0097974142
 Br        20.1139365042        2.5649089351        9.3346479990
 Zn        14.6145111529        7.9505106360        7.9507531801
 Br        13.3591799771        9.2925032857        9.2934896222
 Zn        14.6544769187       18.8850783107       18.8851430394
 Br        13.3683487985       20.2143148003       20.2143864107
 Zn         3.7855917256        8.0609448065       18.8626622331
 Br         2.4570991243        9.3463406020       20.1911836641
 Zn         3.7856827752       18.8623469236        8.0609925537
 Br         2.4573280930       20.1910216176        9.3464321084
 Zn        14.6175585153       14.6674844392        8.0052619462
 Br        13.3398756854       13.3195562148        9.3206712061
 Zn        14.6584403754        3.8918565060       18.8296657604
 Br        13.3448291755        2.5808626019       20.1491230525
 Zn         3.7657507103       14.7655436796       18.9130271179
 Br         2.4534394023       13.4463042195       20.2265227818
 Zn         3.8380285378        3.9031866554        8.0467438206
 Br         2.5216684099        2.6061773041        9.3736641750
 Zn         8.0567673935        7.9197902427        7.9175114235
 Br         9.6338244233        9.0861886803        9.0671761336
 Zn         7.8897644331       18.9395824266       18.9395588827
 Br         9.1842556093       20.2629905359       20.2629952854
 Zn        18.7694382796        8.0560085283       18.8007374509
 Br        20.0785942087        9.3730762353       20.1180032892
 Zn        18.7693880825       18.8004767541        8.0560533299
 Br        20.0785292539       20.1178441021        9.3730561810
 Zn        14.6175680656        8.0050560210       14.6676887931
 Br        13.3398272769        9.3202880855       13.3196673598
 Zn        14.6582559175       18.8293751316        3.8920113971
 Br        13.3446480660       20.1488568864        2.5810463767
 Zn         3.8372120249        8.0461180288        3.9024928444
 Br         2.5203569679        9.3723715637        2.6052794093
 Zn         3.7656541900       18.9130185423       14.7654771979
 Br         2.4533445625       20.2266728861       13.4463910296
 Zn         7.9102294229       14.8171419047       14.8170757268
 Br         9.4249139649       13.6196638195       13.6172474210
 Zn         7.9033962337        3.8025218925        3.8025735489
 Br         9.1553787233        2.4600941915        2.4602479565
 Zn        18.7846393975       14.6741899243        3.8946566468
 Br        20.1164529698       13.3800086162        2.5763941757
 Zn        18.7847180706        3.8945980212       14.6743953631
 Br        20.1165691128        2.5763417464       13.3802264278
 Zn         5.8960742411        6.0211158362       16.7798152344
 Zn        16.6625064250       16.7813283153       16.7814042797
 Zn        16.7265219506        5.9084473568        5.9086685175
 Zn         5.8959787814       16.7795124248        6.0211350787
 Zn         5.9021415240        5.9152461090        5.9149047007
 Zn        16.7113844082       16.7351026404        5.9605704570
 Zn         5.8368394361       16.8629037665       16.8628266763
 Zn        16.7114737799        5.9604930364       16.7354447491
  N         3.7052364668        6.0186795189       16.7533742621
  N        14.5504967196        5.8687451286        5.8690712368
  N        18.8490474299       16.7551377833       16.7552086264
  N         8.0749238389       16.8067261924        5.9721687163
  N        18.9101990670        5.9505382437        5.9508872331
  N         8.0751444105        5.9714484963       16.8072873744
  N         3.7051047334       16.7534269850        6.0185275560
  N        14.4783114447       16.8226646676       16.8227691186
  N        16.7660450150        3.7312729848        5.9085972921
  N        16.6340040575       14.5990111282       16.7886586884
  N        16.6983636345       18.9705077978       16.7864467969
  N        16.6945726474        8.1021126309        5.9053986931
  N         5.8591263063       18.9548312843        5.9894373310
  N         5.8603970658        8.2034530079       16.8096785391
  N         5.9018688386        3.8404656626       16.7417481174
  N         5.9380418553       14.5729492012        6.0917380060
  N         5.9017508980       16.7417390681        3.8404594366
  N         5.9389397015        6.0924473552       14.5731244340
  N        16.6983760318       16.7863726211       18.9705849492
  N        16.6947511494        5.9051739370        8.1023157079
  N         5.8591331815        5.9892769518       18.9548387881
  N         5.8606082221       16.8091435078        8.2033913257
  N        16.7661342456        5.9084619908        3.7315199812
  N        16.6339714013       16.7885899345       14.5991258848
  N         5.8562964477        3.7571337374        5.9275763162
  N         5.8359327936       14.6583578874       16.8516687900
  N        16.7186614549       18.9245921119        5.9750069258
  N        16.6770447305        8.1470338250       16.7426814016
  N         5.8196668022       19.0344314794       16.8519097023
  N         5.9540122954        8.1188517329        5.9282900149
  N        16.7235139089        3.7795376771       16.7479415224
  N        16.7178393213       14.5536083644        5.9663620023
  N         3.6567241975       16.8404799683       16.8404716491
  N        14.5254712302       16.7353967968        5.9262325300
  N        18.8942370673       16.7388464789        5.9739515312
  N         8.0247695641       16.8899262629       16.8900000118
  N        18.8943455932        5.9738987988       16.7390382597
  N         8.0986812142        5.8415051765        5.8418362472
  N         3.7203203171        5.9843889165        5.9845864432
  N        14.5256701202        5.9259886682       16.7356970024
  N        16.7188165282        5.9749087712       18.9248492255
  N        16.6770593867       16.7424467218        8.1471565661
  N        16.7233834331       16.7476967722        3.7796252192
  N        16.7179202942        5.9662600927       14.5538184761
  N         5.8560312664        5.9271667825        3.7570347188
  N         5.8358342274       16.8517904622       14.6582955369
  N         5.8197151724       16.8519743132       19.0344197979
  N         5.9555370326        5.9297864952        8.1189209694
  C        11.2314362454       15.8071669451       15.8074416393
  H        11.2089674463       15.0320497202       15.0323379591
  C        11.3343826026        4.7855819025        4.7858929778
  H        11.3450077010        4.0105330460        4.0103001429
  C         0.4886602725       15.6849036250        4.9381448034
  H         0.4950067166       14.9056806356        4.1665421635
  C         0.4887685376        4.9382208734       15.6848778855
  H         0.4950606587        4.1666471666       14.9056277312
  C        11.2973036164        6.9237326865       15.6481077771
  H        11.2951333350        7.6753939561       14.8510831783
  C        11.3038758181       17.8433125359        4.8976601325
  H        11.3064351258       18.6473548023        4.1519916272
  C         0.4946625108        7.0352205707        4.9206184523
  H         0.4937612644        7.8098811722        4.1442107426
  C         0.4331214385       17.8504782597       15.7350798211
  H         0.4326047911       18.6259892544       14.9595464171
  C        11.2971769507       15.6481985320        6.9249043157
  H        11.2950392389       14.8512592312        7.6766870225
  C        11.3041973118        4.8971192662       17.8437590350
  H        11.3068560911        4.1516416785       18.6479687965
  C         0.4331468132       15.7350395585       17.8505050041
  H         0.4326502989       14.9594981927       18.6260089686
  C         0.4946943077        4.9204249013        7.0357078833
  H         0.4937639098        4.1441191561        7.8104632314
  C        11.3191897680        6.8970473663        6.8989363182
  H        11.3061560252        7.6719618660        7.6738755244
  C        11.2739574390       17.9199249749       17.9199759190
  H        11.2928045004       18.6952610724       18.6952396309
  C         0.4699543274        7.0407573083       17.8119539528
  H         0.4627163437        7.8113098130       18.5924619851
  C         0.4698169320       17.8118599619        7.0408138794
  H         0.4625484183       18.5923268517        7.8114086644
  C        15.5665242082       11.3732169113       15.7312542373
  H        14.7789296802       11.3742043378       14.9681568817
  C        15.7062623539        0.5049086564        4.8708171137
  H        14.9418115767        0.5025395470        4.0843439876
  C         4.8828937022       11.3705579183        4.9740997028
  H         4.1014026943       11.3952973657        4.2043141418
  C         4.8135127227        0.6116185732       15.7205968814
  H         4.0460519965        0.6043102085       14.9373197931
  C        15.6449696647       11.3223850030        6.9942608006
  H        14.8685064983       11.3194521119        7.7687908699
  C        15.6700210004        0.5658581600       17.8361675353
  H        14.9023521821        0.5749598632       18.6195010025
  C         4.7794029182       11.4189914013       17.8752968270
  H         4.0075122360       11.4088675367       18.6544199412
  C         4.8009165135        0.5460816660        7.0279294336
  H         4.0345920890        0.5526292385        7.8124874933
  C         6.8887996773       11.4427117053       15.7584491407
  H         7.6753536137       11.4515176355       14.9952936288
  C         6.8903956949        0.5265859854        4.8843426203
  H         7.6559245830        0.5197592433        4.0987071289
  C        17.7668462134       11.3341100630        4.8869460932
  H        18.5453488184       11.3378422319        4.1145241722
  C        17.7632835226        0.5446710442       15.6989257682
  H        18.5313801936        0.5355499319       14.9162286987
  C         7.0153631806       11.3201499764        7.0661693325
  H         7.8022289314       11.2858931175        7.8273616226
  C         6.9048417461        0.6224472950       17.8600736759
  H         7.6717618509        0.6290132909       18.6442672314
  C        17.7208482124       11.3728690547       17.8050167904
  H        18.5110016647       11.3729108869       18.5657406338
  C        17.7899970086        0.5116847323        7.0185513317
  H        18.5533563543        0.5144429829        7.8059407110
  C        15.5665374587       15.7311007911       11.3733534693
  H        14.7789618243       14.9679845959       11.3743352369
  C        15.7064243275        4.8707067266        0.5051437358
  H        14.9419923123        4.0842141494        0.5027561800
  C         4.8134812489       15.7207134293        0.6115792446
  H         4.0459882402       14.9374644836        0.6042817483
  C         4.8842420558        4.9751639131       11.3704706016
  H         4.1027036358        4.2053857227       11.3950146600
  C         6.8891246441       15.7584783423       11.4427831494
  H         7.6756704467       14.9952968425       11.4517323078
  C         6.8904338425        4.8841748857        0.5265347281
  H         7.6560126108        4.0985950437        0.5196969660
  C        17.7632671371       15.6988184527        0.5447484579
  H        18.5313671087       14.9161240081        0.5356231303
  C        17.7669275935        4.8867290838       11.3343459159
  H        18.5453698863        4.1142487320       11.3381248160
  C        15.6452574437        6.9942388059       11.3225454614
  H        14.8688512532        7.7688270001       11.3195551481
  C        15.6700037573       17.8360520397        0.5659476038
  H        14.9023350854       18.6193841622        0.5750509179
  C         4.8007699375        7.0276350238        0.5460347148
  H         4.0343924763        7.8121467563        0.5526257501
  C         4.7795789859       17.8751910370       11.4187773837
  H         4.0076396127       18.6542693056       11.4085228497
  C         7.0165094788        7.0673347629       11.3205021525
  H         7.8029314637        7.8289497999       11.2866579308
  C         6.9049409744       17.8600591275        0.6224697219
  H         7.6719060555       18.6442075293        0.6290420951
  C        17.7900805604        7.0185174882        0.5119559995
  H        18.5534078127        7.8059370861        0.5147124618
  C        17.7208090224       17.8049216606       11.3729695807
  H        18.5109459560       18.5656622581       11.3730007241
 Kr         8.2118071196       11.2845545938       11.2924390058
