     409
 i =     176, E =    -5136.7102220907
  N         3.0268970336        5.2028290583       16.0239745402
  C         1.7087347033        5.4728628215       16.2930819067
  N        13.8418581297        5.2003260972        5.2003286117
  C        12.5241976046        5.4713748795        5.4713778787
  N        19.7118961937       17.5761124802       16.0198692221
  C        21.0298041277       17.3069363618       16.2911839623
  N         8.8879224029       17.5795298639        5.2037444672
  C        10.2058829015       17.3078294913        5.4725896823
  N        19.7043851610        5.2003814918        6.7567609885
  C        21.0222675448        5.4722826620        6.4880589324
  N         8.8879283883        5.2037395958       17.5795334167
  C        10.2058916314        5.4725828284       17.3078358492
  N         3.0251224462       17.5795408300        6.7600872730
  C         1.7075199005       17.3084676624        6.4890159514
  N        13.8503883125       17.5761407154       17.5761393007
  C        12.5324250230       17.3063865050       17.3063860437
  N        15.9964148236        3.0454595431        5.1989057967
  C        16.2668896714        1.7279489626        5.4687331898
  N        16.0039783316       13.8660844472       16.0186490570
  C        16.2736776236       12.5484512893       16.2885279931
  N        16.0044368807       19.7291963882       17.5761277411
  C        16.2738265284       21.0468196204       17.3058787759
  N        15.9981149621        8.9102138881        6.7568763216
  C        16.2686569106       10.2276434860        6.4869296638
  N         6.7338037786       19.7345762677        5.2045175215
  C         6.4631764716       21.0520817309        5.4745733254
  N         6.7352058622        8.9139484125       16.0236383123
  C         6.4660532222       10.2316778184       16.2937974089
  N         6.7348834651        3.0506735329       17.5808965525
  C         6.4672315599        1.7327932434       17.3098456479
  N         6.7313772889       13.8703142831        6.7618128648
  C         6.4606710264       12.5527797196        6.4923285636
  N         5.1814985532       16.0234720955        3.0496293370
  C         5.4527475064       16.2931167835        1.7321565726
  N         5.1781375552        5.2042544074       13.8708328436
  C         5.4463264586        5.4754567083       12.5531124938
  N        17.5583871599       16.0188371514       19.7294985135
  C        17.2884943707       16.2892469745       21.0471336235
  N        17.5511349498        5.1990130283        8.9095293781
  C        17.2828520719        5.4699159014       10.2272304846
  N         5.1797569840        6.7618224424       19.7339679133
  C         5.4485933734        6.4913140029       21.0516370410
  N         5.1807064432       17.5804707763        8.9147313342
  C         5.4511812547       17.3102224235       10.2321306557
  N        17.5506026514        6.7557379660        3.0459270816
  C        17.2816770099        6.4851771355        1.7282757213
  N        17.5585790772       17.5753893006       13.8656973915
  C        17.2886234436       17.3048907230       12.5481103718
  N         5.1768065763        3.0501328421        6.7615949715
  C         5.4469181017        1.7325712804        6.4912912661
  N         5.1830866369       13.8705752614       17.5805088527
  C         5.4523101020       12.5529397298       17.3102108637
  N        17.5531604334       19.7298583525        6.7552776719
  C        17.2830514092       21.0474040620        6.4849405748
  N        17.5546417608        8.9093490832       17.5763817491
  C        17.2866669219       10.2271026668       17.3053158067
  N         5.1849961427       19.7335644260       16.0232663857
  C         5.4547112557       21.0511982883       16.2931191646
  N         5.1756186780        8.9146818672        5.2049475108
  C         5.4450761454       10.2322012615        5.4758301347
  N        17.5554544926        3.0460395561       16.0185183377
  C        17.2869518401        1.7282385151       16.2891050526
  N        17.5546886599       13.8657143472        5.2000001117
  C        17.2846376553       12.5481343778        5.4703534852
  N         3.0296310449       16.0241619464       17.5804926733
  C         1.7118360194       16.2932319074       17.3089865557
  N        13.8461159399       16.0194169322        6.7561331398
  C        12.5282200577       16.2902999610        6.4864452439
  N        19.7088462371       16.0199453490        5.2003975523
  C        21.0264930565       16.2910242912        5.4714711757
  N         8.8910465210       16.0224189581       16.0224191338
  C        10.2093099616       16.2919116968       16.2919122401
  N        19.7071293161        6.7564006009       17.5766308297
  C        21.0253137181        6.4871682027       17.3068818751
  N         8.8851071447        6.7597560690        6.7597538171
  C        10.2028720707        6.4887295409        6.4887292223
  N         3.0224879699        6.7609420969        5.2045173396
  C         1.7045440823        6.4900657982        5.4742854630
  N        13.8461167723        6.7561289712       16.0194216077
  C        12.5282264969        6.4864396837       16.2903063779
  N        15.9995343096        5.1979053368       19.7292878098
  C        16.2684579675        5.4682879056       21.0470190024
  N        16.0010180826       16.0190690802        8.9101607080
  C        16.2720750788       16.2886783274       10.2275886615
  N        16.0011854872       17.5754387494        3.0450997327
  C        16.2721711851       17.3055946647        1.7277011292
  N        16.0007623059        6.7572699653       13.8661177830
  C        16.2701020767        6.4870999622       12.5484733335
  N         6.7298800801        5.2039827881        3.0508495493
  C         6.4611807091        5.4743612542        1.7330658608
  N         6.7368746237       16.0234182424       13.8702866494
  C         6.4669509546       16.2936317409       12.5526596539
  N         6.7397735770       17.5801763620       19.7341588228
  C         6.4696446158       17.3095449873       21.0516972986
  N         6.7296326441        6.7621905720        8.9143722790
  C         6.4596811506        6.4925345972       10.2319639423
  N        19.7071097810       17.5766289889        6.7564003170
  C        21.0253113460       17.3068793180        6.4871689792
  N         8.8929236354       17.5786659595       17.5786646104
  C        10.2104774118       17.3076735480       17.3076730290
  N         3.0224852135        5.2045148122        6.7609397112
  C         1.7045440875        5.4742829684        6.4900651599
  N        13.8460059434        5.1993704138       17.5755443134
  C        12.5281677858        5.4706167920       17.3060336743
  N         3.0296345597       17.5804971667       16.0241588716
  C         1.7118365538       17.3089837454       16.2932358811
  N        13.8460239459       17.5755446108        5.1993708815
  C        12.5281673173       17.3060296355        5.4706207153
  N        19.7088484042        5.2004013854       16.0199486645
  C        21.0264901221        5.4714723450       16.2910274146
  N         8.8834686384        5.2033418468        5.2033432789
  C        10.2017495146        5.4729404152        5.4729426202
  N         6.7397777690       19.7341671489       17.5801822105
  C         6.4696482649       21.0517011330       17.3095517122
  N         6.7296320683        8.9143768313        6.7621898583
  C         6.4596795194       10.2319693634        6.4925359344
  N         6.7298760286        3.0508518067        5.2039831385
  C         6.4611786412        1.7330666446        5.4743613363
  N         6.7368683945       13.8702983146       16.0234189843
  C         6.4669461765       12.5526677117       16.2936344017
  N        16.0011852026        3.0450800289       17.5754322282
  C        16.2721630514        1.7277016153       17.3055930427
  N        16.0007644655       13.8661297626        6.7572771328
  C        16.2701096928       12.5484751787        6.4871075439
  N        15.9995374798       19.7292705118        5.1978998409
  C        16.2684690858       21.0470201878        5.4682827045
  N        16.0010166933        8.9101703905       16.0190690276
  C        16.2720696604       10.2275885004       16.2886840368
  N        17.5531544355        6.7552747934       19.7298610066
  C        17.2830381837        6.4849414026       21.0473980490
  N        17.5546454559       17.5763845006        8.9093450523
  C        17.2866747011       17.3053117672       10.2271052097
  N         5.1768049026        6.7615924917        3.0501377566
  C         5.4469156554        6.4912901499        1.7325722279
  N         5.1830890234       17.5805066147       13.8705849268
  C         5.4523142551       17.3102057968       12.5529391581
  N        17.5554596584       16.0185184033        3.0460438608
  C        17.2869640536       16.2891023716        1.7282335299
  N        17.5546859546        5.1999973714       13.8657036416
  C        17.2846289098        5.4703501733       12.5481325018
  N         5.1849915035       16.0232658468       19.7335751706
  C         5.4547073165       16.2931165297       21.0512002349
  N         5.1756183089        5.2049500823        8.9146813284
  C         5.4450758989        5.4758287963       10.2321970462
  N        17.5583810757       19.7294783914       16.0188403725
  C        17.2884825856       21.0471360600       16.2892500760
  N        17.5511383612        8.9095377899        5.1990133605
  C        17.2828610202       10.2272289489        5.4699186114
  N         5.1815018893        3.0496369512       16.0234756114
  C         5.4527520618        1.7321630308       16.2931222002
  N         5.1781359369       13.8708331580        5.2042560297
  C         5.4463253447       12.5531131069        5.4754602216
  N        17.5506095829        3.0459122648        6.7557384029
  C        17.2816906846        1.7282789606        6.4851743075
  N        17.5585738976       13.8656972268       17.5753954615
  C        17.2886144308       12.5481051885       17.3048986093
  N         5.1797565259       19.7339691373        6.7618254120
  C         5.4485940827       21.0516388891        6.4913158208
  N         5.1807067029        8.9147357423       17.5804741153
  C         5.4511780221       10.2321339227       17.3102288905
  N        19.7043839801        6.7567622142        5.2003821471
  C        21.0222673142        6.4880586734        5.4722853086
  N         8.8879011276        6.7591707986       16.0222504416
  C        10.2059016381        6.4879327354       16.2916129140
  N         3.0251265259        6.7600864229       17.5795411497
  C         1.7075156681        6.4890155791       17.3084705453
  N        13.8433853181        6.7568008281        6.7568013316
  C        12.5252576560        6.4871630140        6.4871639413
  N         3.0268879501       16.0239748593        5.2028296205
  C         1.7087358783       16.2930788357        5.4728620513
  N        13.8491366665       16.0197582528       16.0197600242
  C        12.5314910942       16.2906267351       16.2906278078
  N        19.7119111130       16.0198615990       17.5761166005
  C        21.0298083926       16.2911764109       17.3069422523
  N         8.8879149462       16.0222473423        6.7591732350
  C        10.2058998222       16.2916070122        6.4879380747
  N         6.7348856895       17.5808936060        3.0506763049
  C         6.4672297003       17.3098387228        1.7327915897
  N         6.7313805640        6.7618093226       13.8703196556
  C         6.4606746369        6.4923255999       12.5527802091
  N         6.7338056671        5.2045221089       19.7345765664
  C         6.4631781379        5.4745748893       21.0520807065
  N         6.7352064588       16.0236360571        8.9139590322
  C         6.4660556596       16.2937937418       10.2316800255
  N        16.0044491782       17.5761222158       19.7291854778
  C        16.2738388293       17.3058755417       21.0468057510
  N        15.9981063280        6.7568731331        8.9102154815
  C        16.2686474631        6.4869235734       10.2276498883
  N        15.9963992424        5.1989065228        3.0454510874
  C        16.2668737071        5.4687365390        1.7279360064
  N        16.0039847889       16.0186427387       13.8660853647
  C        16.2736856215       16.2885190723       12.5484589873
 Zn        14.7117217905       14.7251947564       14.7251945992
 Br        13.3948790627       13.4120493287       13.4120501905
 Zn        14.7055364934        3.9053800768        3.9053893586
 Br        13.3878728573        2.5925093303        2.5925104935
 Zn         3.8899623585       14.7297203388        3.9077366860
 Br         2.5731239022       13.4164837154        2.5945463613
 Zn         3.8899714109        3.9077356469       14.7297243466
 Br         2.5731232534        2.5945456046       13.4164837413
 Zn         8.0239593793        8.0537041016       14.7280189497
 Br         9.3409588889        9.3667363023       13.4144862340
 Zn         8.0243220888       18.8746830128        3.9100736640
 Br         9.3414489702       20.1886086294        2.5974793647
 Zn        18.8405745422        8.0502466686        3.9047323277
 Br        20.1580578933        9.3628038718        2.5912179067
 Zn        18.8496010811       18.8702341862       14.7247130787
 Br        20.1659968383       20.1832713498       13.4107997774
 Zn         8.0239626637       14.7280159561        8.0537063745
 Br         9.3409564152       13.4144853320        9.3667355940
 Zn         8.0243177690        3.9100704509       18.8746892163
 Br         9.3414460297        2.5974825726       20.1886104639
 Zn        18.8496023244       14.7247114939       18.8702450166
 Br        20.1659972323       13.4107996376       20.1832708807
 Zn        18.8405740995        3.9047272121        8.0502429637
 Br        20.1580563375        2.5912176768        9.3628073211
 Zn        14.7076514002        8.0511649955        8.0511589825
 Br        13.3918719102        9.3649892056        9.3649891070
 Zn        14.7129662066       18.8705220599       18.8705353050
 Br        13.3977627255       20.1844654319       20.1844671415
 Zn         3.8884918858        8.0547719934       18.8733345080
 Br         2.5725952864        9.3689881890       20.1866301821
 Zn         3.8884886676       18.8733293174        8.0547718255
 Br         2.5725919148       20.1866323380        9.3689911330
 Zn        14.7095499624       14.7254118106        8.0511702728
 Br        13.3932171440       13.4122550560        9.3649693787
 Zn        14.7093240096        3.9038934527       18.8693035141
 Br        13.3929345670        2.5902603612       20.1825714669
 Zn         3.8922529753       14.7294814179       18.8743276602
 Br         2.5764047274       13.4165593787       20.1887551277
 Zn         3.8862818231        3.9093922992        8.0546674571
 Br         2.5697565566        2.5968680442        9.3691203613
 Zn         8.0214765404        8.0541290967        8.0541302242
 Br         9.3390539281        9.3671257867        9.3671231148
 Zn         8.0324543290       18.8734223746       18.8734266478
 Br         9.3485531769       20.1869620347       20.1869593821
 Zn        18.8431411761        8.0501344917       18.8716141127
 Br        20.1606635854        9.3626206091       20.1852184234
 Zn        18.8431407888       18.8716102129        8.0501375850
 Br        20.1606608189       20.1852197719        9.3626197394
 Zn        14.7095469196        8.0511672483       14.7254127879
 Br        13.3932155742        9.3649705985       13.4122529836
 Zn        14.7093234294       18.8693016280        3.9038952372
 Br        13.3929326034       20.1825753301        2.5902585536
 Zn         3.8862786437        8.0546682005        3.9093907664
 Br         2.5697556497        9.3691205223        2.5968680901
 Zn         3.8922541799       18.8743264020       14.7294839842
 Br         2.5764025527       20.1887621729       13.4165566368
 Zn         8.0267633735       14.7280901955       14.7280950776
 Br         9.3429110264       13.4144293302       13.4144262330
 Zn         8.0188869022        3.9089213472        3.9089231506
 Br         9.3357022194        2.5955436732        2.5955413999
 Zn        18.8459116978       14.7247113353        3.9059944817
 Br        20.1628312009       13.4108649624        2.5933103683
 Zn        18.8459114158        3.9059928199       14.7247158168
 Br        20.1628348818        2.5933061737       13.4108578864
 Zn         5.9550027229        5.9858008621       16.8056891844
 Zn        16.7779889168       16.7968275697       16.7968329492
 Zn        16.7725820355        5.9771978246        5.9772002286
 Zn         5.9550015273       16.8056860667        5.9858030891
 Zn         5.9524049822        5.9862481708        5.9862477187
 Zn        16.7751033174       16.7968979822        5.9768310084
 Zn         5.9580266624       16.8057501973       16.8057495739
 Zn        16.7751030460        5.9768250570       16.7968939920
  N         3.7724694759        5.9817051951       16.8022380340
  N        14.5890525476        5.9782168616        5.9782183621
  N        18.9652733293       16.7974253413       16.7974147246
  N         8.1413576916       16.8015693814        5.9821343631
  N        18.9578598296        5.9776928848        5.9776928461
  N         8.1413542512        5.9821395716       16.8015636882
  N         3.7724638277       16.8022379961        5.9817050539
  N        14.5962315458       16.7976736668       16.7976741062
  N        16.7731259460        3.7925172801        5.9775638939
  N        16.7812372241       14.6126703773       16.7972283607
  N        16.7814804320       18.9824782750       16.7973872342
  N        16.7740543975        8.1629742651        5.9776149551
  N         5.9571999530       18.9875901361        5.9833458315
  N         5.9575960419        8.1676519262       16.8020491372
  N         5.9572342749        3.7971782207       16.8027161710
  N         5.9554567310       14.6175796149        5.9825910733
  N         5.9572362014       16.8027154005        3.7971790475
  N         5.9554627684        5.9825923134       14.6175799610
  N        16.7814717542       16.7973980560       18.9824860269
  N        16.7740554411        5.9776098247        8.1629695358
  N         5.9572015572        5.9833466907       18.9875928116
  N         5.9575893862       16.8020529476        8.1676526624
  N        16.7731295074        5.9775737777        3.7925220341
  N        16.7812415143       16.7972241324       14.6126704891
  N         5.9530468687        3.7975220508        5.9827523843
  N         5.9601560071       14.6174475211       16.8020008297
  N        16.7766317606       18.9826736799        5.9765977059
  N        16.7770341148        8.1628575709       16.7982039421
  N         5.9623165885       18.9872351498       16.8020020014
  N         5.9527983200        8.1678545754        5.9832890475
  N        16.7776605178        3.7923578502       16.7966835263
  N        16.7778287586       14.6127157871        5.9785345705
  N         3.7761296506       16.8030427215       16.8030363660
  N        14.5925061429       16.7971350797        5.9773410179
  N        18.9614242940       16.7979949262        5.9779489402
  N         8.1453439825       16.8009457071       16.8009453560
  N        18.9614324991        5.9779402668       16.7979858412
  N         8.1377661521        5.9819072643        5.9819063817
  N         3.7689397774        5.9830635535        5.9830588834
  N        14.5924995174        5.9773486991       16.7971264152
  N        16.7766373321        5.9766045077       18.9826818152
  N        16.7770311460       16.7982040247        8.1628542045
  N        16.7776547805       16.7966944140        3.7923673310
  N        16.7778277037        5.9785301582       14.6127082944
  N         5.9530427337        5.9827564579        3.7975232754
  N         5.9601490490       16.8020118480       14.6174485728
  N         5.9623233630       16.8020112910       18.9872366022
  N         5.9527997027        5.9832937221        8.1678535517
  C        11.3698000362       15.7417764895       15.7417781397
  H        11.3689847389       14.9662686166       14.9662709726
  C        11.3622554365        4.9227536772        4.9227579299
  H        11.3611399246        4.1472571365        4.1472632446
  C         0.5483734489       15.7426022328        4.9226995656
  H         0.5497619079       14.9671567363        4.1471262289
  C         0.5483777398        4.9226972918       15.7426022444
  H         0.5497660722        4.1471203917       14.9671522382
  C        11.3671001290        7.0364741887       15.7413710088
  H        11.3672022927        7.8119085022       14.9657859837
  C        11.3669790884       17.8564215149        4.9222220024
  H        11.3669567143       18.6321243570        4.1469143992
  C         0.5434104632        7.0386903910        4.9240404471
  H         0.5434570162        7.8142956926        4.1486503164
  C         0.5508057399       17.8574862489       15.7427187486
  H         0.5509150601       18.6331050413       14.9673133551
  C        11.3670982020       15.7413703179        7.0364736010
  H        11.3672045939       14.9657931184        7.8118999135
  C        11.3669831192        4.9222233231       17.8564200751
  H        11.3669582246        4.1469265916       18.6321120189
  C         0.5508037250       15.7427184247       17.8574838745
  H         0.5509192755       14.9673218959       18.6330918719
  C         0.5434124576        4.9240374543        7.0386871110
  H         0.5434586197        4.1486465938        7.8142887506
  C        11.3647645703        7.0373480680        7.0373472271
  H        11.3658461688        7.8128469802        7.8128443536
  C        11.3720244933       17.8565304462       17.8565295810
  H        11.3730004943       18.6320345120       18.6320326700
  C         0.5456354655        7.0376725491       17.8569851888
  H         0.5444239160        7.8132712205       18.6323709433
  C         0.5456382466       17.8569854733        7.0376778468
  H         0.5444218439       18.6323762985        7.8132829782
  C        15.7236000406       11.3883382644       15.7383016550
  H        14.9483995756       11.3888693758       14.9624997819
  C        15.7182656803        0.5672214551        4.9183127108
  H        14.9430843212        0.5667514665        4.1424971371
  C         4.8961976749       11.3928710496        4.9255066213
  H         4.1213326982       11.3931458195        4.1493417141
  C         4.9044874247        0.5712731124       15.7428096955
  H         4.1292326332        0.5704964705       14.9670245210
  C        15.7202254678       11.3883473053        7.0374718749
  H        14.9453293932       11.3888211988        7.8135695283
  C        15.7236897518        0.5669470140       17.8559584044
  H        14.9485380905        0.5664136881       18.6317828224
  C         4.9023475440       11.3928167573       17.8604202566
  H         4.1272875676       11.3931767045       18.6363500349
  C         4.8984802091        0.5717625013        7.0416452182
  H         4.1236243003        0.5710676380        7.8178179288
  C         7.0159368375       11.3919383469       15.7434461663
  H         7.7909614039       11.3915173256       14.9673747766
  C         7.0113904524        0.5729925874        4.9240246319
  H         7.7862255215        0.5736649763        4.1477816286
  C        17.8330720538       11.3873779291        4.9197544004
  H        18.6078340313       11.3868911754        4.1434345672
  C        17.8371651022        0.5680057363       15.7389587015
  H        18.6120844726        0.5685447944       14.9627577273
  C         7.0092890148       11.3921993273        7.0430377657
  H         7.7843594577       11.3918663945        7.8190398985
  C         7.0179246739        0.5727425365       17.8598190260
  H         7.7927702373        0.5735517956       18.6360231179
  C        17.8372461306       11.3872549154       17.8551833526
  H        18.6122877727       11.3866949974       18.6312357461
  C        17.8318354815        0.5680962158        7.0352718578
  H        18.6069175142        0.5685371338        7.8112632970
  C        15.7236068132       15.7382918178       11.3883408972
  H        14.9484030387       14.9624859589       11.3888695052
  C        15.7182567782        4.9183257141        0.5672171663
  H        14.9430844340        4.1425224510        0.5667504083
  C         4.9044867389       15.7428115767        0.5712655810
  H         4.1292385619       14.9670370464        0.5704945526
  C         4.8961998523        4.9255062549       11.3928696760
  H         4.1213339289        4.1493418455       11.3931440248
  C         7.0159356943       15.7434486988       11.3919381139
  H         7.7909519986       14.9673872178       11.3915168084
  C         7.0113922490        4.9240282331        0.5729917600
  H         7.7862287230        4.1477880176        0.5736664713
  C        17.8371701137       15.7389641187        0.5679980805
  H        18.6120802243       14.9627724005        0.5685498855
  C        17.8330652045        4.9197490223       11.3873796596
  H        18.6078302417        4.1434284011       11.3868868893
  C        15.7202164839        7.0374610936       11.3883456671
  H        14.9453237929        7.8135511546       11.3888196099
  C        15.7236930805       17.8559659347        0.5669433367
  H        14.9485290045       18.6318043385        0.5664126534
  C         4.8984756516        7.0416430383        0.5717578586
  H         4.1236167462        7.8178139410        0.5710676179
  C         4.9023437803       17.8604200144       11.3928136535
  H         4.1272752538       18.6363566947       11.3931760179
  C         7.0092938982        7.0430361210       11.3921976852
  H         7.7843688656        7.8190411000       11.3918649862
  C         7.0179282581       17.8598151544        0.5727408343
  H         7.7927818039       18.6360232322        0.5735527029
  C        17.8318265572        7.0352800712        0.5680887173
  H        18.6069154348        7.8112771603        0.5685398682
  C        17.8372556712       17.8551748862       11.3872582057
  H        18.6122992182       18.6312273045       11.3866968650
 Kr         2.1896977363       10.6014485405       10.6014480954
