     409
 i =      56, E =    -5133.8855381523
  N         2.9630985868        5.2016651553       16.0273197106
  C         1.6434066038        5.4675043401       16.2918441627
  N        13.7442071135        5.1846825821        5.1846529558
  C        12.4277503754        5.4583752049        5.4583510636
  N        19.6649640167       17.5602839986       16.0049711235
  C        20.9826566428       17.3001775148       16.2845211318
  N         8.8193542101       17.5816844163        5.2201406618
  C        10.1370223587       17.3030602145        5.4815287045
  N        19.6157836446        5.1799558213        6.7345690271
  C        20.9333361767        5.4595165245        6.4749862409
  N         8.8193325461        5.2201447653       17.5816824328
  C        10.1369992108        5.4815368839       17.3030555419
  N         2.9519332409       17.5803782044        6.7605164876
  C         1.6360947098       17.3066197503        6.4841201289
  N        13.8014480208       17.5596686191       17.5596633556
  C        12.4828794244       17.2929369365       17.2929301900
  N        15.8973221345        3.0253033544        5.1803609162
  C        16.1719254753        1.7077951703        5.4484779772
  N        15.9516954831       13.8490234168       16.0017393868
  C        16.2201671189       12.5311198790       16.2717998112
  N        15.9539647735       19.7090565827       17.5551964113
  C        16.2183265891       21.0271484258       17.2824820272
  N        15.9101571409        8.8902070389        6.7352802965
  C        16.1850339781       10.2073326745        6.4662539252
  N         6.6595185719       19.7415665919        5.2223166935
  C         6.3811965242       21.0583429616        5.4883729873
  N         6.6588047857        8.9194934549       16.0196763934
  C         6.3912787766       10.2371663993       16.2903296928
  N         6.6741187023        3.0619776576       17.5923590134
  C         6.4116817195        1.7426356288       17.3214268833
  N         6.6620341698       13.8719461919        6.7668096902
  C         6.3862374786       12.5552040687        6.4996580289
  N         5.1223110317       16.0335555687        3.0549477516
  C         5.3976572010       16.3042180064        1.7385776178
  N         5.1086070308        5.2098274569       13.8761751005
  C         5.3709559896        5.4836706184       12.5578714203
  N        17.5090061440       15.9988391595       19.7119332357
  C        17.2338322107       16.2666090112       21.0293925964
  N        17.4650967355        5.1785983356        8.8861740045
  C        17.2001409297        5.4499897441       10.2046698930
  N         5.1021366056        6.7763626786       19.7368261815
  C         5.3654127653        6.5039880590       21.0554521361
  N         5.1046152614       17.5779521661        8.9216728218
  C         5.3777106450       17.3082195224       10.2389320817
  N        17.4577252164        6.7317807264        3.0284653013
  C        17.1901473753        6.4617337371        1.7105128829
  N        17.5098258660       17.5554511511       13.8471984557
  C        17.2367485114       17.2867324258       12.5296064600
  N         5.0804203893        3.0547351682        6.7694640266
  C         5.3538721316        1.7370640883        6.5008837717
  N         5.1250886354       13.8784576938       17.5862335493
  C         5.3875112157       12.5601053514       17.3122866906
  N        17.4766406735       19.7137055035        6.7287739069
  C        17.1996642785       21.0299494122        6.4600682999
  N        17.4924511715        8.8892993011       17.5637423530
  C        17.2286907077       10.2078341163       17.2906986277
  N         5.1416939833       19.7397866339       16.0323640455
  C         5.4079387342       21.0576990886       16.3034659910
  N         5.0885288121        8.9200531998        5.2160779660
  C         5.3615361285       10.2370640851        5.4864679677
  N        17.4885882617        3.0297624948       15.9941371103
  C        17.2231038760        1.7111385181       16.2643001389
  N        17.4873126264       13.8438434473        5.1860928293
  C        17.2111364059       12.5264713136        5.4531993770
  N         2.9810466143       16.0381539122       17.5936426945
  C         1.6635660580       16.3008508471       17.3164722136
  N        13.7775402799       15.9996067862        6.7473046615
  C        12.4592051769       16.2745319265        6.4837949273
  N        19.6452640430       16.0055780687        5.1845052905
  C        20.9616677414       16.2808870007        5.4581340568
  N         8.8360291498       16.0188869891       16.0188870100
  C        10.1556611994       16.2849206657       16.2849153992
  N        19.6357594350        6.7355367619       17.5661570034
  C        20.9549022121        6.4717903488       17.2986787912
  N         8.7962812411        6.7562740995        6.7563193428
  C        10.1124096768        6.4821149872        6.4821301730
  N         2.9313523044        6.7692246893        5.2134838476
  C         1.6138637020        6.4918350923        5.4761344972
  N        13.7775128772        6.7473245331       15.9996001617
  C        12.4591778884        6.4838126286       16.2745257196
  N        15.9199599006        5.1748017028       19.7067011114
  C        16.1827656510        5.4457386737       21.0259038322
  N        15.9405029133       16.0047569723        8.8932064820
  C        16.2144750200       16.2736907925       10.2101064128
  N        15.9298910981       17.5469014138        3.0254243051
  C        16.2061590765       17.2788121827        1.7084009372
  N        15.9315543168        6.7421076304       13.8472659222
  C        16.1956285501        6.4692363935       12.5289171638
  N         6.6312910464        5.2095399056        3.0567780281
  C         6.3671765975        5.4829799967        1.7390368094
  N         6.6746677176       16.0254298235       13.8746660780
  C         6.3995530588       16.2931198291       12.5578417525
  N         6.6991945836       17.5870800591       19.7427891534
  C         6.4240295851       17.3189157306       21.0603997169
  N         6.6475258465        6.7690795449        8.9169057532
  C         6.3787498743        6.5005970474       10.2346923456
  N        19.6357789063       17.5661742003        6.7355257936
  C        20.9549218373       17.2986867524        6.4717849833
  N         8.8458184920       17.5753323971       17.5753367921
  C        10.1618272349       17.3007512427       17.3007492126
  N         2.9313374460        5.2134339798        6.7692429600
  C         1.6138546024        5.4761086449        6.4918439659
  N        13.7753357737        5.1868490618       17.5501768499
  C        12.4580833239        5.4660068579       17.2880627342
  N         2.9810479755       17.5936464945       16.0381499875
  C         1.6635667398       17.3164778638       16.3008457263
  N        13.7753600122       17.5501898448        5.1868349546
  C        12.4581077123       17.2880722647        5.4659924470
  N        19.6452466789        5.1845079812       16.0055702549
  C        20.9616497502        5.4581338368       16.2808847599
  N         8.7869539677        5.2004162237        5.2004497293
  C        10.1062327315        5.4664058754        5.4664145285
  N         6.6991992997       19.7427813427       17.5870827984
  C         6.4240320522       21.0603920421       17.3189224171
  N         6.6475631659        8.9168832728        6.7691759821
  C         6.3788048427       10.2346713277        6.5006774197
  N         6.6312729010        3.0567508449        5.2095314658
  C         6.3671612890        1.7390074123        5.4829617434
  N         6.6746681980       13.8746582091       16.0254448842
  C         6.3995469483       12.5578341777       16.2931308564
  N        15.9298627969        3.0254321574       17.5468864363
  C        16.2061358405        1.7084088298       17.2788000327
  N        15.9315879165       13.8472779642        6.7421064853
  C        16.1956575513       12.5289289649        6.4692343246
  N        15.9199819644       19.7067215626        5.1747878855
  C        16.1827816850       21.0259256904        5.4457232572
  N        15.9404882648        8.8932190613       16.0047332497
  C        16.2144642258       10.2101182744       16.2736675494
  N        17.4766226061        6.7287853144       19.7136785971
  C        17.1996503700        6.4600814797       21.0299232833
  N        17.4924671667       17.5637653282        8.8892915978
  C        17.2287027016       17.2907208327       10.2078261540
  N         5.0804468234        6.7694834260        3.0547787953
  C         5.3538929172        6.5009086006        1.7371024669
  N         5.1250941240       17.5862241847       13.8784625561
  C         5.3875206191       17.3122786792       12.5601111251
  N        17.4886143178       15.9941510556        3.0297536249
  C        17.2231263964       16.2643117295        1.7111296930
  N        17.4872937592        5.1861070294       13.8438342708
  C        17.2111171575        5.4532111251       12.5264614929
  N         5.1416873436       16.0323632783       19.7397937425
  C         5.4079359353       16.3034597317       21.0577069289
  N         5.0884850115        5.2159809794        8.9200789648
  C         5.3614776383        5.4863900486       10.2370906692
  N        17.5090011150       19.7119426197       15.9988385737
  C        17.2338206485       21.0294013258       16.2666045504
  N        17.4650990599        8.8861844841        5.1785783698
  C        17.2001518365       10.2046806337        5.4499758185
  N         5.1222947457        3.0549363420       16.0335836082
  C         5.3976500223        1.7385676444       16.3042379784
  N         5.1086624845       13.8761426607        5.2098557689
  C         5.3710178552       12.5578427357        5.4837124044
  N        17.4577220229        3.0284913166        6.7317645011
  C        17.1901500375        1.7105384986        6.4617173403
  N        17.5098245975       13.8472039457       17.5554382368
  C        17.2367443353       12.5296133696       17.2867161906
  N         5.1021399380       19.7367959057        6.7763471565
  C         5.3654053343       21.0554204505        6.5039668326
  N         5.1045912948        8.9216667631       17.5779517119
  C         5.3776919066       10.2389257737       17.3082210607
  N        19.6157945771        6.7345938485        5.1799391794
  C        20.9333445315        6.4750015707        5.4595091787
  N         8.8193670788        6.7724832628       16.0221085299
  C        10.1372337044        6.4960669681       16.2861148433
  N         2.9519124754        6.7605047168       17.5803994652
  C         1.6360740128        6.4841153665       17.3066319802
  N        13.7523431164        6.7403646515        6.7403337071
  C        12.4334196754        6.4739863359        6.4739635037
  N         2.9631191123       16.0272862071        5.2016874855
  C         1.6434266205       16.2918251125        5.4675156720
  N        13.7945342791       16.0042149870       16.0042038109
  C        12.4777465333       16.2773295455       16.2773189363
  N        19.6649639255       16.0049762485       17.5602741713
  C        20.9826563989       16.2845271790       17.3001692539
  N         8.8193956670       16.0221127785        6.7724816377
  C        10.1372610532       16.2861195334        6.4960588698
  N         6.6741312907       17.5923366362        3.0619845595
  C         6.4116869125       17.3214091484        1.7426437655
  N         6.6619837636        6.7667770376       13.8719602311
  C         6.3861791963        6.4996126549       12.5552222506
  N         6.6595125975        5.2223275985       19.7415908547
  C         6.3812005560        5.4883902850       21.0583693937
  N         6.6588289060       16.0196782459        8.9195026480
  C         6.3912968118       16.2903278708       10.2371747166
  N        15.9539688907       17.5551964938       19.7090502312
  C        16.2183377488       17.2824863055       21.0271413971
  N        15.9101390937        6.7352849577        8.8901930402
  C        16.1850125986        6.4662574700       10.2073194956
  N        15.8973222086        5.1803795009        3.0252828895
  C        16.1719207799        5.4484961161        1.7077736816
  N        15.9516950584       16.0017535915       13.8490112191
  C        16.2201699728       16.2718173216       12.5311086185
 Zn        14.6575127984       14.7125376867       14.7125270717
 Br        13.3337440107       13.4022521383       13.4022385677
 Zn        14.6035419548        3.8912787537        3.8912621248
 Br        13.2848031730        2.5784497040        2.5784308097
 Zn         3.8307566979       14.7383348779        3.9063164606
 Br         2.5134697432       13.4267447930        2.5914531418
 Zn         3.8307221437        3.9062835764       14.7383841220
 Br         2.5134375456        2.5914207820       13.4267856308
 Zn         7.9531885874        8.0607320896       14.7259233426
 Br         9.2663339950        9.3714018973       13.4050260048
 Zn         7.9582328111       18.8829730476        3.9366332427
 Br         9.2740081351       20.1972165602        2.6218180499
 Zn        18.7564999550        8.0201003649        3.8876845604
 Br        20.0688007305        9.3343952486        2.5700122140
 Zn        18.8039858067       18.8464385736       14.7100262143
 Br        20.1159474636       20.1606334336       13.3918008177
 Zn         7.9532229015       14.7259364487        8.0607476956
 Br         9.2664098752       13.4050814883        9.3714227710
 Zn         7.9582219184        3.9366416632       18.8829829770
 Br         9.2740086787        2.6218272284       20.1972159974
 Zn        18.8039897049       14.7100263434       18.8464235841
 Br        20.1159461932       13.3917989555       20.1606216320
 Zn        18.7564937413        3.8877063094        8.0200849434
 Br        20.0687917784        2.5700335048        9.3343809692
 Zn        14.6171357823        8.0296229754        8.0295991261
 Br        13.3188104895        9.3522234878        9.3522048561
 Zn        14.6640510479       18.8492621448       18.8492618255
 Br        13.3565745571       20.1675936599       20.1675947405
 Zn         3.8056264523        8.0615837057       18.8705849392
 Br         2.4933861532        9.3804316974       20.1823364114
 Zn         3.8056436088       18.8705724131        8.0615874027
 Br         2.4934015347       20.1823277390        9.3804292736
 Zn        14.6474979090       14.7118324897        8.0403460962
 Br        13.3299375000       13.4009667617        9.3565308656
 Zn        14.6312995008        3.8867072946       18.8340540990
 Br        13.3173762501        2.5695187434       20.1474854402
 Zn         3.8420667621       14.7441882135       18.8828223350
 Br         2.5272110562       13.4317447523       20.1994042187
 Zn         3.7918658323        3.9216811136        8.0625203782
 Br         2.4793845208        2.6096931352        9.3815330390
 Zn         7.9468097845        8.0540800338        8.0541516158
 Br         9.3073628737        9.3450707583        9.3452062526
 Zn         7.9967184169       18.8746403293       18.8746463610
 Br         9.3170153638       20.1858900841       20.1858978933
 Zn        18.7730591654        8.0196560858       18.8644671669
 Br        20.0875463306        9.3344750702       20.1790052438
 Zn        18.7730725607       18.8644908028        8.0196436772
 Br        20.0875642514       20.1790226588        9.3344647906
 Zn        14.6474711916        8.0403616698       14.7118214980
 Br        13.3299029048        9.3565389333       13.4009554800
 Zn        14.6313338120       18.8340670087        3.8866965260
 Br        13.3174017906       20.1474963434        2.5695114470
 Zn         3.7918959168        8.0625212588        3.9217989729
 Br         2.4794571461        9.3815575732        2.6097847642
 Zn         3.8420729693       18.8828205080       14.7441830924
 Br         2.5272252982       20.1994043897       13.4317347713
 Zn         7.9627390549       14.7269374291       14.7269492087
 Br         9.2599919984       13.4031321734       13.4031523940
 Zn         7.9175440126        3.9092522371        3.9092675743
 Br         9.2289292866        2.5932277037        2.5932379257
 Zn        18.7818869742       14.7081496187        3.8963176134
 Br        20.0975762864       13.3911538853        2.5844047202
 Zn        18.7818673396        3.8963248416       14.7081404509
 Br        20.0975517590        2.5844164257       13.3911357526
 Zn         5.8903293524        5.9963928747       16.8109394155
 Zn        16.7289317601       16.7761910584       16.7761860912
 Zn        16.6752333442        5.9548695928        5.9548539909
 Zn         5.8903481120       16.8109195274        5.9963984124
 Zn         5.8576185859        5.9930489926        5.9930954315
 Zn        16.7115640106       16.7750170982        5.9564684737
 Zn         5.9100023035       16.8140133849       16.8140183234
 Zn        16.7115462028        5.9564752896       16.7750047649
  N         3.7041743585        5.9837841171       16.8061080706
  N        14.4948730982        5.9606432773        5.9606108631
  N        18.9180021047       16.7773701030       16.7773626115
  N         8.0728271524       16.8057920943        6.0000861129
  N        18.8684232753        5.9520059393        5.9519808261
  N         8.0728020855        6.0000864556       16.8057900624
  N         3.7041946722       16.8060755867        5.9838063291
  N        14.5448806585       16.7804060276       16.7803983697
  N        16.6757748148        3.7733857404        5.9565283334
  N        16.7318015548       14.5946983253       16.7783435588
  N        16.7341210033       18.9636337945       16.7784907497
  N        16.6851240140        8.1414829388        5.9562828030
  N         5.8848431301       18.9925921285        6.0011326504
  N         5.8806217209        8.1742241506       16.7987674727
  N         5.8948583349        3.8054678197       16.8130842895
  N         5.8889634326       14.6211952778        5.9866097250
  N         5.8948777721       16.8130563629        3.8054766282
  N         5.8889141902        5.9865844636       14.6212182485
  N        16.7341221088       16.7784889698       18.9636261156
  N        16.6851173615        5.9562971660        8.1414706301
  N         5.8848324582        6.0011423878       18.9926194922
  N         5.8806484862       16.7987696077        8.1742314263
  N        16.6757786691        5.9565457180        3.7733624199
  N        16.7318005771       16.7783554379       14.5946895179
  N         5.8537662045        3.8027798521        5.9881324743
  N         5.9033276331       14.6236999585       16.8075504011
  N        16.7022082524       18.9632151480        5.9511505582
  N        16.7136804556        8.1443539516       16.7852053720
  N         5.9223807690       18.9948345064       16.8089143628
  N         5.8669924406        8.1719466876        5.9920448827
  N        16.7066842133        3.7741693754       16.7699344591
  N        16.7125636346       14.5921336168        5.9656257030
  N         3.7278164906       16.8195176925       16.8195145754
  N        14.5232903346       16.7717331982        5.9628811342
  N        18.8939098994       16.7840019185        5.9576727391
  N         8.0944850342       16.7994663081       16.7994718766
  N        18.8938911753        5.9576818441       16.7839862136
  N         8.0448984411        5.9805374172        5.9805917251
  N         3.6778135842        5.9951032233        5.9951444496
  N        14.5232648253        5.9628981215       16.7717221148
  N        16.7021859610        5.9511625409       18.9631918230
  N        16.7136977739       16.7852284694        8.1443440327
  N        16.7067130778       16.7699501629        3.7741612956
  N        16.7125367100        5.9656338810       14.5921225901
  N         5.8537906373        5.9881411769        3.8028146860
  N         5.9033274803       16.8075370341       14.6237063443
  N         5.9223735194       16.8089146261       18.9948419375
  N         5.8669610065        5.9919394846        8.1719725465
  C        11.3131722263       15.7315407556       15.7315296254
  H        11.3087793786       14.9560603931       14.9560461227
  C        11.2632871509        4.9127265398        4.9127127994
  H        11.2577947758        4.1372538682        4.1372356374
  C         0.4872000148       15.7364359004        4.9136143587
  H         0.4948311116       14.9604773179        4.1386193463
  C         0.4871831195        4.9136063561       15.7364455065
  H         0.4948172485        4.1386090854       14.9604889933
  C        11.2984159886        7.0397229661       15.7309289754
  H        11.2989029962        7.8154316104       14.9556766802
  C        11.2974584484       17.8449640686        4.9237029859
  H        11.2973893518       18.6200495240        4.1476778200
  C         0.4535191726        7.0341631664        4.9187359914
  H         0.4532953711        7.8107243700        4.1442575199
  C         0.5030669395       17.8588479087       15.7435452716
  H         0.5031968422       18.6351014413       14.9687577961
  C        11.2984458740       15.7309330955        7.0397082804
  H        11.2989360875       14.9556795715        7.8154155612
  C        11.2974372572        4.9237134815       17.8449562152
  H        11.2973713724        4.1476867392       18.6200400863
  C         0.5030656600       15.7435503101       17.8588403680
  H         0.5031951316       14.9687621877       18.6350932403
  C         0.4534972391        4.9187212017        7.0341529388
  H         0.4532524771        4.1442347949        7.8107055990
  C        11.2768126940        7.0277514970        7.0277465368
  H        11.2820279342        7.8032796508        7.8032783161
  C        11.3259663609       17.8465285636       17.8465252249
  H        11.3318502091       18.6220727280       18.6220721126
  C         0.4708555847        7.0274208245       17.8525449032
  H         0.4631523361        7.8027526747       18.6282688610
  C         0.4708776407       17.8525470088        7.0274160752
  H         0.4631765078       18.6282763509        7.8027426921
  C        15.6679210275       11.3715202085       15.7226183795
  H        14.8922324333       11.3726722199       14.9472192742
  C        15.6261721646        0.5449234248        4.8988252331
  H        14.8488975783        0.5417776950        4.1250878733
  C         4.8154647460       11.3990401934        4.9361691776
  H         4.0395367848       11.4014418416        4.1610724626
  C         4.8531386557        0.5759461459       15.7540971099
  H         4.0771244524        0.5723568723       14.9790027380
  C        15.6408116880       11.3698945307        7.0174365802
  H        14.8659036155       11.3723925638        7.7935519619
  C        15.6621946798        0.5458494291       17.8299098427
  H        14.8863200989        0.5426580945       18.6050777866
  C         4.8342224806       11.4009054566       17.8613793186
  H         4.0613440281       11.4029754693       18.6394580744
  C         4.8102354642        0.5743934338        7.0524598538
  H         4.0354920247        0.5712695257        7.8286965394
  C         6.9431209006       11.3962619616       15.7397139128
  H         7.7168298838       11.3944580471       14.9623968792
  C         6.9227996586        0.5806357573        4.9347017719
  H         7.6968765291        0.5839255421        4.1577005088
  C        17.7547058439       11.3638187374        4.9014170756
  H        18.5296693104       11.3610143662        4.1253556764
  C        17.7779702139        0.5521641742       15.7155969033
  H        18.5530673088        0.5552948171       14.9396547838
  C         6.9323152331       11.3933931031        7.0502000117
  H         7.7100939956       11.3916027664        7.8232951827
  C         6.9669177887        0.5837742342       17.8703215282
  H         7.7413938925        0.5876464797       18.6467793340
  C        17.7826483485       11.3677327364       17.8381147116
  H        18.5581104738       11.3662385068       18.6136426531
  C        17.7451682801        0.5520455043        7.0101206196
  H        18.5215783607        0.5549217366        7.7847804994
  C        15.6679268868       15.7226401510       11.3715055048
  H        14.8922371428       14.9472422443       11.3726516456
  C        15.6261608176        4.8988432874        0.5449049231
  H        14.8488849706        4.1251072508        0.5417639608
  C         4.8531408871       15.7540846644        0.5759543456
  H         4.0771270458       14.9789902106        0.5723641017
  C         4.8153991005        4.9361139270       11.3990754048
  H         4.0394656543        4.1610222194       11.4014933677
  C         6.9431320417       15.7397060141       11.3962704801
  H         7.7168400252       14.9623880952       11.3944663216
  C         6.9228071077        4.9347193147        0.5806608693
  H         7.6968806075        4.1577144383        0.5839459856
  C        17.7779877340       15.7156054031        0.5521545963
  H        18.5530853356       14.9396638265        0.5552846313
  C        17.7546958934        4.9014353341       11.3638099406
  H        18.5296670742        4.1253816327       11.3610088603
  C        15.6407804994        7.0174327424       11.3698806787
  H        14.8658649328        7.7935404944       11.3723759691
  C        15.6622121934       17.8299187304        0.5458429779
  H        14.8863377989       18.6050870000        0.5426530669
  C         4.8102556299        7.0524859145        0.5744308903
  H         4.0355171322        7.8287271116        0.5713109534
  C         4.8342372148       17.8613758484       11.4009108572
  H         4.0613601064       18.6394559521       11.4029809949
  C         6.9322575593        7.0501364825       11.3934055078
  H         7.7100388315        7.8232287256       11.3916008317
  C         6.9669183421       17.8703100503        0.5837826019
  H         7.7413939909       18.6467684231        0.5876550903
  C        17.7451609782        7.0101343822        0.5520163977
  H        18.5215728403        7.7847924958        0.5548865653
  C        17.7826571786       17.8381329020       11.3677285098
  H        18.5581212665       18.6136589071       11.3662399585
 Xe         6.1787044978       11.1623683712       11.1622421584
