     409
 i =     150, E =    -5183.7552847735
  N         2.8575309436        5.1925821846       16.0120964679
  C         1.5395694786        5.4632723078       16.2799419080
  N        13.6733110355        5.1800090587        5.1800014781
  C        12.3556545092        5.4501492633        5.4501563753
  N        19.5432141909       17.5620348554       16.0061220494
  C        20.8610834564       17.2941553143       16.2781390368
  N         8.7193885127       17.5783330933        5.1865562617
  C        10.0368972804       17.3062183847        5.4561865928
  N        19.5370780250        5.1888386431        6.7447060271
  C        20.8546495104        5.4626356860        6.4786248657
  N         8.7193852697        5.1865628420       17.5783256598
  C        10.0369118650        5.4561796651       17.3062125847
  N         2.8559111455       17.5671531924        6.7500639444
  C         1.5383875802       17.2953593456        6.4800149069
  N        13.6789996326       17.5681585175       17.5681638521
  C        12.3606753892       17.2993705657       17.2993658395
  N        15.8300810612        3.0305812653        5.1853170798
  C        16.0976547961        1.7133126759        5.4581000269
  N        15.8315170469       13.8526616019       16.0086421706
  C        16.0999392570       12.5344542456       16.2778309483
  N        15.8349110573       19.7167894918       17.5629243108
  C        16.1035774166       21.0342460933       17.2917301539
  N        15.8296876214        8.8943926399        6.7363848836
  C        16.0992123715       10.2127391907        6.4680575824
  N         6.5598262948       19.7241057736        5.1927663310
  C         6.2903457784       21.0411229473        5.4638828867
  N         6.5640638890        8.8999625123       16.0138237236
  C         6.2961585458       10.2184472276       16.2835826672
  N         6.5638101953        3.0387993789       17.5723180506
  C         6.2961808048        1.7213657887       17.3005899855
  N         6.5633133797       13.8567850452        6.7428630105
  C         6.2927014280       12.5386227392        6.4755500878
  N         5.0127442110       16.0120166401        3.0383266161
  C         5.2831217022       16.2817136039        1.7210339625
  N         5.0072759660        5.1888611511       13.8561609828
  C         5.2760047805        5.4603300396       12.5387448927
  N        17.3878410797       16.0051286029       19.7163365217
  C        17.1181209066       16.2743997712       21.0341314748
  N        17.3851223352        5.1817732820        8.8956791744
  C        17.1155521422        5.4524093679       10.2129742826
  N         5.0079053530        6.7514029815       19.7227026787
  C         5.2767039911        6.4820416654       21.0404835805
  N         5.0095373515       17.5699114813        8.9019753174
  C         5.2806163363       17.3000437540       10.2192098163
  N        17.3834238571        6.7430584759        3.0314849605
  C        17.1120634289        6.4756503202        1.7138546811
  N        17.3877326889       17.5631574857       13.8512791381
  C        17.1164069967       17.2933505968       12.5339550314
  N         5.0042558111        3.0378165538        6.7496359802
  C         5.2749860288        1.7203559699        6.4810564960
  N         5.0108773667       13.8570610450       17.5717770938
  C         5.2809456121       12.5396281900       17.3012183181
  N        17.3834712897       19.7162702739        6.7454436770
  C        17.1123165219       21.0338219448        6.4768730610
  N        17.3851710274        8.8963974338       17.5631660316
  C        17.1148444717       10.2136484102       17.2929931945
  N         5.0153927490       19.7237483530       16.0113874896
  C         5.2844200264       21.0412970110       16.2813450583
  N         5.0052589149        8.9017406081        5.1889608757
  C         5.2753112583       10.2186739104        5.4606664380
  N        17.3877926533        3.0321131467       16.0052830334
  C        17.1178404589        1.7144537399       16.2745236212
  N        17.3887861769       13.8504152263        5.1824706874
  C        17.1176047150       12.5331318089        5.4524280053
  N         2.8601997788       16.0137013161       17.5701455183
  C         1.5424280363       16.2820068883       17.2981026166
  N        13.6751418563       16.0107979958        6.7363007105
  C        12.3572215156       16.2839353918        6.4692959852
  N        19.5413632570       16.0073509862        5.1897181343
  C        20.8586679166       16.2775214614        5.4616869214
  N         8.7184816638       16.0178828479       16.0178723748
  C        10.0369864651       16.2863651899       16.2863669843
  N        19.5389295073        6.7461556472       17.5629816749
  C        20.8571035175        6.4780800803       17.2931857991
  N         8.7169620862        6.7357776218        6.7357752878
  C        10.0349610421        6.4664066278        6.4664019288
  N         2.8528808965        6.7506018079        5.1944197326
  C         1.5352768583        6.4814649278        5.4653953381
  N        13.6751514206        6.7362967952       16.0107882356
  C        12.3572256140        6.4692948002       16.2839201684
  N        15.8314944699        5.1869375337       19.7160605869
  C        16.0983271060        5.4590312040       21.0335527155
  N        15.8301859373       16.0076269485        8.8948826095
  C        16.0988326790       16.2769958832       10.2132787214
  N        15.8335130840       17.5624041185        3.0317749440
  C        16.1028681974       17.2915571808        1.7143713966
  N        15.8320877846        6.7360969566       13.8519182224
  C        16.1008332801        6.4676434057       12.5336885413
  N         6.5563041239        5.1903254185        3.0373189561
  C         6.2885407901        5.4626960505        1.7202861531
  N         6.5647779580       16.0148807918       13.8578186524
  C         6.2961991594       16.2844805280       12.5397187273
  N         6.5665710046       17.5708041615       19.7241245156
  C         6.2975687586       17.3000198735       21.0415697260
  N         6.5621886361        6.7421530949        8.8988121393
  C         6.2924507891        6.4754934642       10.2174766352
  N        19.5389364895       17.5629808386        6.7461598822
  C        20.8571253881       17.2932035585        6.4780891434
  N         8.7215785336       17.5741199790       17.5741128662
  C        10.0389722031       17.3024973965       17.3025011906
  N         2.8528839655        5.1944167149        6.7505831618
  C         1.5352716515        5.4653903106        6.4814578275
  N        13.6761398348        5.1823950545       17.5680552727
  C        12.3581843669        5.4543327491       17.3010786800
  N         2.8602052066       17.5701248735       16.0137002103
  C         1.5424105348       17.2980987678       16.2819993735
  N        13.6761374889       17.5680663901        5.1824011015
  C        12.3581713225       17.3010971158        5.4543352319
  N        19.5413435262        5.1897131963       16.0073483618
  C        20.8586604955        5.4616792649       16.2775054752
  N         8.7171712285        5.1805499064        5.1805491133
  C        10.0348213018        5.4503862757        5.4503811654
  N         6.5665727516       19.7241245069       17.5708146019
  C         6.2975846866       21.0415462979       17.2999969225
  N         6.5622043738        8.8988325932        6.7421449469
  C         6.2924172131       10.2175012612        6.4755383824
  N         6.5563059467        3.0372998082        5.1903022399
  C         6.2885569350        1.7202835280        5.4627044713
  N         6.5647552484       13.8578453736       16.0148929665
  C         6.2962018937       12.5397208190       16.2844897933
  N        15.8335122725        3.0317721579       17.5623880192
  C        16.1028601124        1.7143702319       17.2915303833
  N        15.8320765408       13.8519067296        6.7361145204
  C        16.1008234142       12.5336817826        6.4676419537
  N        15.8314774804       19.7160601644        5.1869527353
  C        16.0983585010       21.0335420648        5.4590113739
  N        15.8302066112        8.8948705841       16.0076140879
  C        16.0988268477       10.2132866433       16.2769912348
  N        17.3834783137        6.7454371727       19.7162818635
  C        17.1122792467        6.4768988367       21.0338287841
  N        17.3851599750       17.5631658551        8.8963947369
  C        17.1148545723       17.2929911911       10.2136609320
  N         5.0042536113        6.7496641438        3.0378147174
  C         5.2749704114        6.4810474117        1.7203590850
  N         5.0108883188       17.5717665738       13.8570550287
  C         5.2809384886       17.3012103473       12.5396111588
  N        17.3877937258       16.0052983762        3.0321185531
  C        17.1178488195       16.2745494419        1.7144621774
  N        17.3887943278        5.1824486124       13.8504044281
  C        17.1176126326        5.4524270970       12.5331373927
  N         5.0153940872       16.0113934917       19.7237551681
  C         5.2844026945       16.2813724477       21.0413034944
  N         5.0052513733        5.1889619673        8.9017168473
  C         5.2753487418        5.4606176496       10.2186522644
  N        17.3878436421       19.7163382698       16.0051323366
  C        17.1180892701       21.0341244684       16.2743824779
  N        17.3851120689        8.8956657437        5.1817755787
  C        17.1155486486       10.2129708524        5.4524058291
  N         5.0127405743        3.0383055461       16.0120130781
  C         5.2831564546        1.7210288605       16.2816984681
  N         5.0072829273       13.8561764734        5.1888584864
  C         5.2759623181       12.5387548542        5.4603650856
  N        17.3834271928        3.0314738804        6.7430582198
  C        17.1120931636        1.7138505852        6.4756063094
  N        17.3877419332       13.8512701418       17.5631748182
  C        17.1164112252       12.5339409499       17.2933811717
  N         5.0079144639       19.7226789706        6.7513822529
  C         5.2767232820       21.0404859342        6.4820640719
  N         5.0095289319        8.9019853497       17.5699215710
  C         5.2806111993       10.2192161588       17.3000438733
  N        19.5370639187        6.7447097001        5.1888408656
  C        20.8546578497        6.4786448782        5.4626216055
  N         8.7175687722        6.7393179592       16.0194928651
  C        10.0358656068        6.4706402754       16.2885078541
  N         2.8558968816        6.7500637604       17.5671672017
  C         1.5383662741        6.4800260097       17.2953497496
  N        13.6741580753        6.7352644866        6.7352672675
  C        12.3559582987        6.4661935292        6.4662060583
  N         2.8575323682       16.0120756454        5.1925897890
  C         1.5395790467       16.2799469607        5.4632644423
  N        13.6762927144       16.0121728354       16.0121889897
  C        12.3586566241       16.2832804754       16.2832797055
  N        19.5431982594       16.0061139517       17.5620392789
  C        20.8610998080       16.2781096531       17.2941853887
  N         8.7175605063       16.0194960979        6.7393097435
  C        10.0358639549       16.2885108314        6.4706446535
  N         6.5638115842       17.5723228609        3.0387969511
  C         6.2961433266       17.3006041026        1.7213898142
  N         6.5633045575        6.7428644485       13.8567824308
  C         6.2927438507        6.4755166081       12.5386055203
  N         6.5598271100        5.1927861143       19.7241023410
  C         6.2903301173        5.4638626433       21.0411324479
  N         6.5640628672       16.0138026415        8.8999707490
  C         6.2961598612       16.2835761984       10.2184428000
  N        15.8349070403       17.5629296931       19.7168004491
  C        16.1036090930       17.2917512188       21.0342402999
  N        15.8296963240        6.7363797543        8.8943912942
  C        16.0992153118        6.4680610864       10.2127537304
  N        15.8300827992        5.1853142936        3.0305789546
  C        16.0976291275        5.4581407156        1.7133241232
  N        15.8315127028       16.0086223198       13.8526758646
  C        16.0999359086       16.2778000218       12.5344482326
 Zn        14.5444703912       14.7215429544       14.7215623291
 Cl        13.3127862598       13.4912756345       13.4913118252
 Zn        14.5416035785        3.8910952236        3.8910935606
 Cl        13.3080493105        2.6588297766        2.6587959610
 Zn         3.7201413911       14.7200787093        3.8973785716
 Cl         2.4867073694       13.4898233356        2.6636374243
 Zn         3.7201313577        3.8973735710       14.7200711336
 Cl         2.4867082944        2.6636209540       13.4898000081
 Zn         7.8503105842        8.0250821623       14.7266414581
 Cl         9.0911931665        9.2553801652       13.5049584615
 Zn         7.8510156709       18.8712717139        3.8974266528
 Cl         9.0765078932       20.1078701220        2.6625049687
 Zn        18.6750130023        8.0336251392        3.8930593507
 Cl        19.9088276196        9.2651300439        2.6604803594
 Zn        18.6779639136       18.8536242500       14.7143465098
 Cl        19.9115640573       20.0847171930       13.4809352076
 Zn         7.8503109319       14.7266468062        8.0250775691
 Cl         9.0911888105       13.5049677485        9.2553776218
 Zn         7.8510172880        3.8974340633       18.8712623627
 Cl         9.0764961303        2.6625184501       20.1078714234
 Zn        18.6779671252       14.7143438189       18.8536187162
 Cl        19.9115444839       13.4809418210       20.0847287073
 Zn        18.6750210034        3.8930584925        8.0336389602
 Cl        19.9088570919        2.6604714638        9.2651236775
 Zn        14.5444635438        8.0212785076        8.0212817510
 Cl        13.3160389405        9.2540721228        9.2540548473
 Zn        14.5468298343       18.8594659463       18.8594528164
 Cl        13.3166517366       20.0930927152       20.0931196485
 Zn         3.7188945838        8.0447026538       18.8622834298
 Cl         2.4836828438        9.2758688386       20.0931337423
 Zn         3.7189182982       18.8622692051        8.0446684768
 Cl         2.4836816980       20.0930729172        9.2758490403
 Zn        14.5450828656       14.7196516387        8.0207873233
 Cl        13.3163532080       13.4885508588        9.2541057585
 Zn        14.5442950834        3.8922204782       18.8577533998
 Cl        13.3121031404        2.6576650014       20.0889127987
 Zn         3.7233237659       14.7201905232       18.8657467877
 Cl         2.4886753262       13.4903586260       20.0985385523
 Zn         3.7141193079        3.8985322642        8.0435238764
 Cl         2.4799233299        2.6672396399        9.2751911453
 Zn         7.8500075427        8.0226808800        8.0226739800
 Cl         9.0904538246        9.2493667238        9.2493846012
 Zn         7.8549697477       18.8675230714       18.8675486723
 Cl         9.0841133442       20.1014921862       20.1014832871
 Zn        18.6738055139        8.0378419238       18.8561661304
 Cl        19.9068774792        9.2700155916       20.0886200950
 Zn        18.6737989604       18.8561338145        8.0378285200
 Cl        19.9068421340       20.0886130181        9.2699947056
 Zn        14.5450936131        8.0207767014       14.7196467123
 Cl        13.3163618300        9.2540890104       13.4885483652
 Zn        14.5442903605       18.8577589905        3.8922216396
 Cl        13.3121188435       20.0889257428        2.6576556085
 Zn         3.7141202328        8.0435583370        3.8985349532
 Cl         2.4798951515        9.2751945465        2.6672368874
 Zn         3.7233176261       18.8657110943       14.7201938002
 Cl         2.4887003192       20.0985412557       13.4903874523
 Zn         7.8506664279       14.7266727213       14.7266906170
 Cl         9.0913972014       13.5009787796       13.5009653256
 Zn         7.8464822012        3.8930676376        3.8930676198
 Cl         9.0673080327        2.6548463986        2.6548798564
 Zn        18.6800782732       14.7155035094        3.8948444915
 Cl        19.9153375584       13.4835126338        2.6643602724
 Zn        18.6800813397        3.8948303703       14.7154943352
 Cl        19.9153246515        2.6643566591       13.4834783225
 Zn         5.7867080878        5.9638830543       16.7899845916
 Zn        16.6101095984       16.7813196885       16.7813525579
 Zn        16.6081091817        5.9581632900        5.9581685775
 Zn         5.7867147957       16.7899148488        5.9638829445
 Zn         5.7835403996        5.9621431841        5.9621312799
 Zn        16.6094921919       16.7811712057        5.9592533408
 Zn         5.7891701796       16.7893413271       16.7892199561
 Zn        16.6095018567        5.9592447995       16.7811610729
  N         3.6029660337        5.9710145515       16.7906363864
  N        14.4201991985        5.9574625724        5.9574512098
  N        18.7967626126       16.7829425502       16.7830009651
  N         7.9721361232       16.7993870668        5.9627412248
  N        18.7906794685        5.9645929339        5.9645590755
  N         7.9721441261        5.9627245411       16.7994048414
  N         3.6029813599       16.7905971369        5.9710250885
  N        14.4239740420       16.7894889174       16.7895081343
  N        16.6077984357        3.7774616252        5.9626870174
  N        16.6103066961       14.5983949267       16.7858665208
  N        16.6116730785       18.9698319009       16.7845544744
  N        16.6074047470        8.1483680058        5.9584237898
  N         5.7839408464       18.9766680820        5.9713959121
  N         5.7858242352        8.1543347202       16.7919193411
  N         5.7873922056        3.7849112028       16.7928261959
  N         5.7859219292       14.6031565746        5.9647352213
  N         5.7873695709       16.7927846676        3.7849256936
  N         5.7859170365        5.9647648873       14.6031494576
  N        16.6116766875       16.7845165789       18.9698353250
  N        16.6073902317        5.9584458598        8.1483766583
  N         5.7839813311        5.9713987230       18.9766772556
  N         5.7858108492       16.7919073812        8.1543302844
  N        16.6078306194        5.9626818725        3.7774689088
  N        16.6102699574       16.7858272169       14.5984022389
  N         5.7794098384        3.7839322772        5.9686326916
  N         5.7875055007       14.6040157035       16.7933945710
  N        16.6086716010       18.9693896089        5.9651248711
  N        16.6081926471        8.1490042179       16.7855552320
  N         5.7908372694       18.9771610471       16.7913835135
  N         5.7836801957        8.1535258822        5.9642443858
  N        16.6108775175        3.7783494997       16.7841496762
  N        16.6108491662       14.5976618495        5.9590016709
  N         3.6064084531       16.7927917819       16.7927555544
  N        14.4220793339       16.7876083964        5.9580794835
  N        18.7937658698       16.7851010793        5.9668708640
  N         7.9738406136       16.7966233985       16.7966061551
  N        18.7937532407        5.9668410007       16.7850795781
  N         7.9704352301        5.9582097615        5.9582279904
  N         3.5992136478        5.9717950695        5.9718012085
  N        14.4220887027        5.9580887257       16.7875855260
  N        16.6086960324        5.9650875035       18.9693963071
  N        16.6082007406       16.7855990580        8.1490074171
  N        16.6108709102       16.7841680435        3.7783556079
  N        16.6108392268        5.9589883751       14.5976660648
  N         5.7794278652        5.9686439175        3.7839354030
  N         5.7874953169       16.7934225584       14.6039971694
  N         5.7908716540       16.7913934793       18.9771659824
  N         5.7836465430        5.9642625390        8.1535033428
  C        11.1964240068       15.7346054758       15.7346036248
  H        11.1937460451       14.9590591901       14.9590547573
  C        11.1951669942        4.8998740617        4.8998755761
  H        11.1954332505        4.1243643855        4.1243692971
  C         0.3800477975       15.7283144254        4.9122315813
  H         0.3814310879       14.9529992146        4.1364272459
  C         0.3800463339        4.9122306873       15.7283025703
  H         0.3814542075        4.1364156463       14.9529961168
  C        11.1958229502        7.0200598519       15.7355415255
  H        11.1941071701        7.7948520608       14.9591966301
  C        11.1982997586       17.8548141801        4.9058980709
  H        11.1999384279       18.6308797751        4.1309314682
  C         0.3749376316        7.0312208169        4.9142910618
  H         0.3747678534        7.8067066561        4.1386547707
  C         0.3817141257       17.8463312424       15.7297345459
  H         0.3816227877       18.6215984724       14.9538897104
  C        11.1958248921       15.7355485877        7.0200601718
  H        11.1941341253       14.9591988133        7.7948473393
  C        11.1983100986        4.9058917614       17.8548012820
  H        11.1999696365        4.1309297672       18.6308712577
  C         0.3817392612       15.7297256766       17.8463526545
  H         0.3817460419       14.9538838571       18.6216248021
  C         0.3749263048        4.9142921835        7.0312021448
  H         0.3747009791        4.1386525640        7.8066850413
  C        11.1955981747        7.0168267964        7.0168333971
  H        11.1952612954        7.7924100866        7.7924187915
  C        11.2012791788       17.8511141386       17.8511135939
  H        11.2039196542       18.6266408762       18.6266449218
  C         0.3767923636        7.0300053922       17.8439680524
  H         0.3751946756        7.8060679224       18.6190113593
  C         0.3768161181       17.8439858993        7.0300040060
  H         0.3752516946       18.6190211376        7.8060748731
  C        15.5486164389       11.3742795602       15.7271501690
  H        14.7729458399       11.3751418863       14.9517249505
  C        15.5475683011        0.5530437279        4.9076378719
  H        14.7731676270        0.5524324712        4.1308854593
  C         4.7243120021       11.3788561026        4.9108442809
  H         3.9483253767       11.3789662759        4.1357197722
  C         4.7348201828        0.5609388675       15.7291223189
  H         3.9611662181        0.5606880388       14.9516340559
  C        15.5491967670       11.3736322257        7.0182625049
  H        14.7733765786       11.3744944988        7.7935970916
  C        15.5529973775        0.5541712945       17.8425458001
  H        14.7780619023        0.5540366951       18.6187580208
  C         4.7307182904       11.3792565527       17.8514766935
  H         3.9554304900       11.3789479366       18.6273340563
  C         4.7266971439        0.5602045997        7.0338789821
  H         3.9528444681        0.5600273602        7.8111565533
  C         6.8466597715       11.3792363701       15.7336033226
  H         7.6224324065       11.3795440263       14.9583173445
  C         6.8392389355        0.5608049554        4.9115627444
  H         7.6129417250        0.5610756355        4.1340778470
  C        17.6673931925       11.3726021452        4.9022278382
  H        18.4432749054       11.3718709554        4.1270290581
  C        17.6676652970        0.5543410732       15.7229630324
  H        18.4422570711        0.5544622506       14.9464106003
  C         6.8433689287       11.3779707777        7.0258854336
  H         7.6200743736       11.3778956240        7.8002680416
  C         6.8462950093        0.5616308892       17.8522582778
  H         7.6198288697        0.5620458824       18.6298964964
  C        17.6662191333       11.3733791671       17.8435643147
  H        18.4421898961       11.3726966355       18.6187304871
  C        17.6612961679        0.5541509020        7.0284551929
  H        18.4356829343        0.5547869521        7.8052122936
  C        15.5486182084       15.7271388370       11.3742671261
  H        14.7729361844       14.9517252400       11.3750653552
  C        15.5475350922        4.9076735103        0.5530602981
  H        14.7731565878        4.1308990002        0.5525023310
  C         4.7347899320       15.7291477727        0.5609390743
  H         3.9611489502       14.9516458552        0.5606605246
  C         4.7243640740        4.9107969913       11.3788430103
  H         3.9483531853        4.1356976323       11.3789686339
  C         6.8466600047       15.7335950731       11.3792340813
  H         7.6224375134       14.9583142265       11.3795618658
  C         6.8392224726        4.9115442071        0.5608161139
  H         7.6129407768        4.1340748097        0.5610909722
  C        17.6676887508       15.7229891482        0.5543546028
  H        18.4422738647       14.9464320130        0.5545153966
  C        17.6673992285        4.9022300179       11.3726048426
  H        18.4432773472        4.1270273687       11.3718834012
  C        15.5492037739        7.0182696172       11.3736428784
  H        14.7733848197        7.7936055479       11.3745115901
  C        15.5530228056       17.8425726395        0.5541622954
  H        14.7780782899       18.6187756784        0.5539815255
  C         4.7266766619        7.0338566367        0.5602078034
  H         3.9528375304        7.8111476071        0.5600141719
  C         4.7307153213       17.8514774664       11.3792476536
  H         3.9554295573       18.6273354246       11.3789345182
  C         6.8434118045        7.0258373254       11.3779458950
  H         7.6200921715        7.8002452165       11.3778339312
  C         6.8462632330       17.8522792076        0.5616533498
  H         7.6198115982       18.6299032351        0.5621235420
  C        17.6612528809        7.0285011585        0.5541518004
  H        18.4356574038        7.8052412754        0.5547582867
  C        17.6662232678       17.8435456499       11.3733985687
  H        18.4421846546       18.6187220301       11.3727440213
 Xe        11.1929427480       11.3737902452       11.3737847970
