     409
 i =       26, E =     -5133.8864295016
  N         3.0811217788        5.2311743176       16.0559072677
  C         1.7636521763        5.5098502649       16.3172213717
  N        13.8990431170        5.2344830521        5.2343937636
  C        12.5812791078        5.5038280369        5.5053954311
  N        19.7621977213       17.6079175802       16.0523636962
  C        21.0798448967       17.3374491802       16.3220711244
  N         8.9420716311       17.6075781185        5.2312148752
  C        10.2597901731       17.3363183019        5.5002265254
  N        19.7617245838        5.2313106226        6.7867801864
  C        21.0794369788        5.4988372813        6.5141724163
  N         8.9431295673        5.2312640267       17.6075952224
  C        10.2608014871        5.5004254586       17.3364174925
  N         3.0783166886       17.6107317786        6.7882221143
  C         1.7605630706       17.3413324447        6.5176634616
  N        13.8988078804       17.6085450982       17.6086357425
  C        12.5811310063       17.3372121841       17.3394653723
  N        16.0541053768        3.0795660430        5.2320418502
  C        16.3247113351        1.7617412720        5.5013838647
  N        16.0540112396       13.8996076696       16.0529744876
  C        16.3237091457       12.5819292004       16.3234121608
  N        16.0533202349       19.7624381266       17.6081582893
  C        16.3239264177       21.0801399142       17.3383869620
  N        16.0511451031        8.9430061860        6.7877721605
  C        16.3198390508       10.2608253314        6.5165899875
  N         6.7865851606       19.7620783212        5.2315672054
  C         6.5147583127       21.0797896146        5.5000436270
  N         6.7879308332        8.9397739058       16.0518656193
  C         6.5073950982       10.2572390944       16.3110643697
  N         6.7883050380        3.0779329645       17.6113689456
  C         6.5172960962        1.7602046476       17.3423653007
  N         6.7894999902       13.8992862493        6.7894392983
  C         6.5195942760       12.5815508693        6.5194100430
  N         5.2323568552       16.0533255766        3.0786017489
  C         5.5024734972       16.3228316116        1.7606768267
  N         5.2355216912        5.2320029340       13.9014382194
  C         5.4976784098        5.5100096322       12.5840135757
  N        17.6079362517       16.0530185773       19.7620294343
  C        17.3373578096       16.3227323205       21.0796803956
  N        17.6068849201        5.2320301878        8.9424220101
  C        17.3350548842        5.5006220073       10.2600936206
  N         5.2317289452        6.7864823042       19.7624906674
  C         5.4989857415        6.5137140935       21.0801629546
  N         5.2310981407       17.6065930227        8.9424028332
  C         5.5002576697       17.3354104447       10.2600618384
  N        17.6120161213        6.7879012626        3.0787317909
  C        17.3435298405        6.5165947289        1.7609269796
  N        17.6095782927       17.6089929672       13.8990595601
  C        17.3394663565       17.3390673550       12.5813468443
  N         5.2319237957        3.0791607557        6.7888730982
  C         5.4997885088        1.7612954406        6.5166472717
  N         5.2233585018       13.8966459045       17.5982342375
  C         5.4879954189       12.5788379435       17.3227693394
  N        17.6096425981       19.7626566002        6.7881371472
  C        17.3405527405       21.0803542153        6.5171174972
  N        17.6078914648        8.9428453608       17.6103969431
  C        17.3384569994       10.2605723669       17.3398345542
  N         5.2325847423       19.7613493274       16.0552639662
  C         5.5015513935       21.0789894305       16.3267324964
  N         5.2332592431        8.9424700644        5.2337800663
  C         5.5033655334       10.2601760574        5.5041314520
  N        17.6119074588        3.0794580331       16.0544862284
  C        17.3412997296        1.7615964198       16.3239621787
  N        17.6070585391       13.8999105228        5.2322404494
  C        17.3355887711       12.5822529382        5.5010066774
  N         3.0787716527       16.0539281519       17.6097119716
  C         1.7611039081       16.3229793456       17.3386912264
  N        13.8988901486       16.0519952504        6.7876766944
  C        12.5811725711       16.3205738896        6.5160830853
  N        19.7615377728       16.0545479746        5.2328316666
  C        21.0792076492       16.3254880013        5.5021848474
  N         8.9419428683       16.0486843588       16.0554467321
  C        10.2597918371       16.3191208309       16.3252840471
  N        19.7642384368        6.7960453442       17.6022957829
  C        21.0820872842        6.5287693247       17.3295965369
  N         8.9417288028        6.7881029046        6.7921908396
  C        10.2596335187        6.5183567349        6.5222709298
  N         3.0785909262        6.7865708143        5.2303761730
  C         1.7608255168        6.5143751619        5.4982080327
  N        13.8997814731        6.7880269961       16.0526001530
  C        12.5820884014        6.5162703004       16.3210204677
  N        16.0562475609        5.2326424554       19.7617405044
  C        16.3278145543        5.5013876179       21.0794290712
  N        16.0531039809       16.0538832003        8.9422694589
  C        16.3234691871       16.3236659807       10.2600070417
  N        16.0522907430       17.6089425560        3.0787526790
  C        16.3216584573       17.3382924401        1.7610008119
  N        16.0504675440        6.7877883267       13.8991980792
  C        16.3189297105        6.5162622460       12.5814338431
  N         6.7863896588        5.2300022362        3.0793126895
  C         6.5141887310        5.4977356583        1.7615369446
  N         6.7892937501       16.0531521696       13.8990064860
  C         6.5169527583       16.3209559737       12.5813550188
  N         6.7885841283       17.6072647588       19.7612866851
  C         6.5178753080       17.3379807120       21.0789931734
  N         6.7835559329        6.7951028943        8.9443956842
  C         6.5101533260        6.5287734952       10.2623468341
  N        19.7615723892       17.6105751067        6.7883214739
  C        21.0792844425       17.3413220192        6.5175940434
  N         8.9419932894       17.6065169724       17.6093718597
  C        10.2597491611       17.3359644654       17.3398725502
  N         3.0785387427        5.2297249273        6.7851600527
  C         1.7607969490        5.4979895296        6.5133257159
  N        13.8998266070        5.2319655656       17.6081725551
  C        12.5821257075        5.5006614919       17.3367666406
  N         3.0788414359       17.6084609937       16.0526693668
  C         1.7611228619       17.3378432207       16.3221177876
  N        13.8989167898       17.6079076420        5.2319913966
  C        12.5812148736       17.3364325714        5.5006006684
  N        19.7641823667        5.2411213239       16.0455926861
  C        21.0820415219        5.5139913455       16.3129218068
  N         8.9420008581        5.2337988718        5.2348768590
  C        10.2597094329        5.5035809014        5.5056636200
  N         6.7883591185       19.7612193569       17.6109816646
  C         6.5173296079       21.0789902402       17.3422104439
  N         6.7897907986        8.9423974835        6.7887982635
  C         6.5197612529       10.2601807520        6.5190996256
  N         6.7865712441        3.0790323083        5.2317760142
  C         6.5147533014        1.7612663923        5.5000900705
  N         6.7785978112       13.8966663369       16.0418257012
  C         6.5034591541       12.5787932612       16.3067027818
  N        16.0546558827        3.0793565657       17.6089231473
  C        16.3245014433        1.7616015617       17.3386598434
  N        16.0510646122       13.8999824454        6.7878284930
  C        16.3197933262       12.5822543502        6.5165394773
  N        16.0536948946       19.7625495309        5.2325523986
  C        16.3246713724       21.0802567905        5.5017406721
  N        16.0533682487        8.9427722340       16.0533367626
  C        16.3232592918       10.2605076058       16.3236136880
  N        17.6139481356        6.7865325880       19.7616787067
  C        17.3446258138        6.5158580461       21.0795281419
  N        17.6088759116       17.6097189826        8.9423496360
  C        17.3390745221       17.3394551607       10.2600841137
  N         5.2307704065        6.7860284305        3.0791713288
  C         5.4985082934        6.5135251793        1.7614424085
  N         5.2322709869       17.6077475793       13.8991180342
  C         5.5008087086       17.3361429277       12.5814157858
  N        17.6080619585       16.0531289958        3.0787488798
  C        17.3374277776       16.3226175177        1.7610128894
  N        17.6050980986        5.2308372943       13.8990521243
  C        17.3340211760        5.4999989985       12.5814252068
  N         5.2348896206       16.0493039081       19.7612799988
  C         5.5037288868       16.3208678751       21.0790576339
  N         5.2272975651        5.2396995500        8.9444938631
  C         5.4944565618        5.5129171733       10.2623595735
  N        17.6096830698       19.7623240785       16.0529528320
  C        17.3401169778       21.0800790783       16.3233519450
  N        17.6071604009        8.9431906935        5.2321286255
  C        17.3356447939       10.2608783557        5.5010070081
  N         5.2325879836        3.0782103279       16.0556874046
  C         5.5014027442        1.7604280301       16.3267448548
  N         5.2332460381       13.8993724465        5.2341610338
  C         5.5032481127       12.5816428878        5.5044021404
  N        17.6100764590        3.0792946970        6.7876653717
  C        17.3407365752        1.7616024940        6.5168711282
  N        17.6091729322       13.8995094688       17.6093811916
  C        17.3392105341       12.5818036573       17.3393164266
  N         5.2314765628       19.7620456601        6.7880831386
  C         5.4996925471       21.0797860861        6.5162186974
  N         5.2329703146        8.9400414440       17.6080402970
  C         5.4922538038       10.2573304935       17.3269868246
  N        19.7617959167        6.7877875237        5.2316863575
  C        21.0794629631        6.5149696122        5.4990534661
  N         8.9429106625        6.7873790910       16.0522222862
  C        10.2607083649        6.5160552685       16.3206942281
  N         3.0808899181        6.7858749705       17.6124028462
  C         1.7635323642        6.5243263092       17.3338851935
  N        13.8989015335        6.7893891947        6.7910543702
  C        12.5811409680        6.5188782690        6.5216844783
  N         3.0784476331       16.0545823472        5.2327582659
  C         1.7606566286       16.3253974487        5.5020750443
  N        13.8992814196       16.0519891258       16.0535386855
  C        12.5814516365       16.3208432365       16.3244360895
  N        19.7621288866       16.0526972628       17.6086440593
  C        21.0798272051       16.3223642928       17.3382146554
  N         8.9419707063       16.0518280782        6.7871099394
  C        10.2597480309       16.3204978838        6.5157859630
  N         6.7871713021       17.6101500201        3.0780457417
  C         6.5171632179       17.3396494857        1.7603505500
  N         6.7912729015        6.7873892512       13.9012834754
  C         6.5131414003        6.5255799680       12.5838836410
  N         6.7872383525        5.2305916286       19.7625515834
  C         6.5145941877        5.4980974597       21.0802353013
  N         6.7875465299       16.0514152016        8.9421844175
  C         6.5161135975       16.3198968413       10.2599870007
  N        16.0521153698       17.6087334706       19.7618914333
  C        16.3216573877       17.3382636784       21.0796269415
  N        16.0517345560        6.7885063809        8.9422383576
  C        16.3197707113        6.5167155014       10.2600266902
  N        16.0550404323        5.2332722529        3.0787543919
  C        16.3270585934        5.5015536860        1.7609687733
  N        16.0537569366       16.0531920329       13.8991766410
  C        16.3238747630       16.3232561439       12.5814576112
 Zn        14.7602991203       14.7596739595       14.7595621582
 Br        13.4468756209       13.4447093246       13.4451736618
 Zn        14.7599489342        3.9414037576        3.9400643016
 Br        13.4445166910        2.6280963128        2.6257466535
 Zn         3.9396833433       14.7599765661        3.9405224556
 Br         2.6253489756       13.4444267971        2.6272135831
 Zn         3.9410459750        3.9404099455       14.7611053169
 Br         2.6263702461        2.6278457073       13.4452927963
 Zn         8.0824872568        8.0815859542       14.7601230156
 Br         9.3955773428        9.3963924525       13.4449881734
 Zn         8.0816110175       18.9023047370        3.9388204764
 Br         9.3967667020       20.2181504352        2.6265689146
 Zn        18.9024113927        8.0833428710        3.9396334129
 Br        20.2182042544        9.3994607963        2.6281798288
 Zn        18.9028551898       18.9022719455       14.7591503399
 Br        20.2182425669       20.2162861044       13.4453665339
 Zn         8.0827148325       14.7596965387        8.0824279146
 Br         9.3975973777       13.4457750904        9.3966316894
 Zn         8.0827030003        3.9391653549       18.9023863852
 Br         9.3982525219        2.6270428379       20.2182777130
 Zn        18.9022874891       14.7596626741       18.9026939361
 Br        20.2167020683       13.4460479041       20.2177698161
 Zn        18.9018957033        3.9395181633        8.0823813614
 Br        20.2171290222        2.6271389369        9.3979978174
 Zn        14.7593817170        8.0833116180        8.0830545039
 Br        13.4458365169        9.3978030351        9.3981522001
 Zn        14.7591270518       18.9025269066       18.9015621060
 Br        13.4450356759       20.2175430814       20.2155214610
 Zn         3.9401144169        8.0817275293       18.9021331088
 Br         2.6267884248        9.3992054896       20.2146290179
 Zn         3.9390074341       18.9022002529        8.0828931978
 Br         2.6270284485       20.2170264931        9.3994164029
 Zn        14.7592769551       14.7601891959        8.0826421724
 Br        13.4455207146       13.4464174430        9.3980151906
 Zn        14.7605822433        3.9397265398       18.9020654464
 Br        13.4484218569        2.6262170499       20.2195630791
 Zn         3.9391655120       14.7580369125       18.9008088179
 Br         2.6269781367       13.4417755223       20.2156556000
 Zn         3.9394408041        3.9405133509        8.0827487138
 Br         2.6253442372        2.6282105593        9.3996363519
 Zn         8.0817366921        8.0830420304        8.0838512395
 Br         9.3947177598        9.3982259846        9.3990273745
 Zn         8.0828826388       18.9013226892       18.9026706414
 Br         9.3992176371       20.2125747067       20.2182162511
 Zn        18.9038464105        8.0832254953       18.9018048893
 Br        20.2190392799        9.3984041570       20.2145896840
 Zn        18.9023764447       18.9033055250        8.0827724329
 Br        20.2164852707       20.2174153578        9.3977606228
 Zn        14.7593222673        8.0828011501       14.7600596789
 Br        13.4456068900        9.3981053007       13.4461328534
 Zn        14.7592474023       18.9023573647        3.9394601357
 Br        13.4445034236       20.2185820270        2.6270875328
 Zn         3.9398220471        8.0821310715        3.9395076483
 Br         2.6263105761        9.3981804176        2.6257136692
 Zn         3.9397252248       18.9020497540       14.7597671725
 Br         2.6269847647       20.2178201816       13.4450039834
 Zn         8.0816983100       14.7583240094       14.7589352408
 Br         9.3958678452       13.4434771231       13.4449454800
 Zn         8.0822622457        3.9398154115        3.9403388809
 Br         9.3997603341        2.6254549451        2.6289429315
 Zn        18.9015988069       14.7600093533        3.9395513035
 Br        20.2178327745       13.4452613504        2.6273493104
 Zn        18.9025797808        3.9408436215       14.7591078330
 Br        20.2194520932        2.6293774642       13.4442780363
 Zn         6.0106083427        6.0116164947       16.8304106810
 Zn        16.8306515918       16.8307085805       16.8304700888
 Zn        16.8307067070        6.0117586243        6.0112636609
 Zn         6.0108775430       16.8309177739        6.0110999593
 Zn         6.0105620378        6.0109898706        6.0111771715
 Zn        16.8301674357       16.8309079126        6.0111274557
 Zn         6.0109426164       16.8295211068       16.8301298319
 Zn        16.8311455801        6.0115481487       16.8302809055
  N         3.8278004258        6.0039868165       16.8390398367
  N        14.6457010036        6.0122949097        6.0123396351
  N        19.0154841325       16.8306608946       16.8307909748
  N         8.1953517557       16.8304912633        6.0099086850
  N        19.0151410146        6.0110336301        6.0106568100
  N         8.1963624539        6.0099807389       16.8307197830
  N         3.8251831217       16.8323821983        6.0109902954
  N        14.6458461021       16.8310077929       16.8307389670
  N        16.8318590483        3.8262186544        6.0104202819
  N        16.8316734755       14.6463590348       16.8312613173
  N        16.8312779399       19.0157205053       16.8303981495
  N        16.8300092907        8.1964203089        6.0106850689
  N         6.0101215851       19.0154469074        6.0108646209
  N         6.0164689903        8.1932327201       16.8361166532
  N         6.0112451557        3.8248715868       16.8330725597
  N         6.0114590373       14.6460526537        6.0116699111
  N         6.0099186792       16.8320497303        3.8251275857
  N         6.0178698886        6.0052727280       14.6480769443
  N        16.8303557440       16.8311138719       19.0153050364
  N        16.8303200333        6.0111883781        8.1956672442
  N         6.0110616750        6.0100125146       19.0159266072
  N         6.0101252587       16.8299524541        8.1956188686
  N        16.8326890591        6.0115882044        3.8255339095
  N        16.8317666801       16.8312078376       14.6459139345
  N         6.0104884351        3.8258356032        6.0114317777
  N         6.0041874873       14.6433951737       16.8233808553
  N        16.8312493711       19.0159322585        6.0109961901
  N        16.8305200500        8.1960648760       16.8320299163
  N         6.0112122203       19.0145349750       16.8324598125
  N         6.0116545189        8.1957663240        6.0111826017
  N        16.8334285945        3.8262115854       16.8319798840
  N        16.8299354700       14.6466866368        6.0107363254
  N         3.8255938665       16.8316291528       16.8316812821
  N        14.6456543764       16.8308758401        6.0106401665
  N        19.0148945484       16.8322152101        6.0111115196
  N         8.1952648534       16.8278244325       16.8323439596
  N        19.0175842148        6.0168944090       16.8259254180
  N         8.1951990037        6.0109976884        6.0133140156
  N         3.8253177979        6.0093181172        6.0089751753
  N        14.6465685539        6.0108413085       16.8312964005
  N        16.8344571376        6.0102459307       19.0150336575
  N        16.8308900886       16.8319842212        8.1955769564
  N        16.8305513034       16.8314040793        3.8255620014
  N        16.8286792581        6.0099665783       14.6458751263
  N         6.0099225657        6.0094430469        3.8260248756
  N         6.0118491311       16.8315466542       14.6457855169
  N         6.0124187563       16.8279177176       19.0146602755
  N         6.0074427616        6.0153884331        8.1977888857
  C        11.4207827244       15.7698382059       15.7757243421
  H        11.4210275005       14.9937483499       15.0006802804
  C        11.4204650089        4.9543538308        4.9558167491
  H        11.4203330355        4.1791913012        4.1800724994
  C         0.5998230178       15.7758359024        4.9525196018
  H         0.5992746538       14.9999661561        4.1773228312
  C         0.6027925738        4.9636076648       15.7641699108
  H         0.6026428420        4.1877216642       14.9890147840
  C        11.4213685293        7.0657002266       15.7708729130
  H        11.4213743798        7.8413192107       14.9953852123
  C        11.4205105347       17.8855662920        4.9502555675
  H        11.4204212101       18.6610603195        4.1747276475
  C         0.6000372005        7.0639913860        4.9485295518
  H         0.5995740299        7.8400769169        4.1735094065
  C         0.6003644005       17.8869244244       15.7719249482
  H         0.5998549843       18.6619286004       14.9958368752
  C        11.4203941330       15.7703631056        7.0652507929
  H        11.4202577963       14.9947967660        7.8407863480
  C        11.4213298903        4.9501596106       17.8855625111
  H        11.4206229635        4.1745383600       18.6609411704
  C         0.6004506974       15.7727772992       17.8880469525
  H         0.6002461486       14.9974140016       18.6637893570
  C         0.6000588604        4.9478062936        7.0625631268
  H         0.5997539592        4.1721172131        7.8379721815
  C        11.4203628971        7.0678146428        7.0723443927
  H        11.4203746049        7.8426666970        7.8485846274
  C        11.4202146881       17.8864604531       17.8893205112
  H        11.4197427192       18.6623746145       18.6645891261
  C         0.6027738637        7.0773044899       17.8805094263
  H         0.6030129548        7.8512361927       18.6577132450
  C         0.5998453691       17.8914023211        7.0671492280
  H         0.5995227602       18.6669022252        7.8428150478
  C        15.7742719781       11.4212393340       15.7733832442
  H        14.9989748636       11.4212374851       14.9975440375
  C        15.7752319272        0.6008664752        4.9517799405
  H        14.9993463256        0.6002564087        4.1765910726
  C         4.9536548793       11.4208864831        4.9547831571
  H         4.1778061935       11.4206638868        4.1797183623
  C         4.9516679562        0.5996466506       15.7773397738
  H         4.1762083935        0.5991520889       15.0017240431
  C        15.7695329765       11.4215285685        7.0658028594
  H        14.9939906354       11.4215849407        7.8413723586
  C        15.7744318181        0.6008606959       17.8881092174
  H        14.9986077278        0.6005588910       18.6634091623
  C         4.9388926400       11.4180637016       17.8729418322
  H         4.1647240864       11.4176054335       18.6497764629
  C         4.9498134847        0.6004274658        7.0658617641
  H         4.1750216243        0.5999903242        7.8421623504
  C         7.0530650031       11.4179327581       15.7570373733
  H         7.8296415670       11.4175814387       14.9825198284
  C         7.0636744286        0.6004599643        4.9496387666
  H         7.8391614490        0.5999981916        4.1740163125
  C        17.8849452939       11.4215316016        4.9509953514
  H        18.6604333704       11.4213589581        4.1754646445
  C        17.8905234506        0.6006650044       15.7741009993
  H        18.6665979923        0.6001202981       14.9990698057
  C         7.0694090797       11.4208178003        7.0691478245
  H         7.8452644893       11.4207562455        7.8444047573
  C         7.0667205581        0.5995573464       17.8924802466
  H         7.8424849198        0.5995886917       18.6678646600
  C        17.8883675529       11.4210866045       17.8896941279
  H        18.6638938711       11.4207754878       18.6653600683
  C        17.8906275007        0.6009394905        7.0665782249
  H        18.6661697447        0.6008032275        7.8421874549
  C        15.7740010903       15.7737922929       11.4206970412
  H        14.9984849863       14.9981663400       11.4205325511
  C        15.7776744779        4.9520704584        0.6000260399
  H        15.0014580298        4.1771970191        0.5993881822
  C         4.9538061386       15.7719439199        0.5999595534
  H         4.1792350085       14.9954365874        0.5997989049
  C         4.9450978611        4.9633601752       11.4231711951
  H         4.1707102959        4.1868337271       11.4232330282
  C         7.0660680226       15.7704240104       11.4206960922
  H         7.8417350831       14.9949797494       11.4208085760
  C         7.0632092904        4.9472954063        0.6008017418
  H         7.8388040324        4.1717969535        0.6002325391
  C        17.8868680831       15.7727291161        0.6002618719
  H        18.6624065765       14.9971659802        0.5998290612
  C        17.8835068293        4.9499114241       11.4207903761
  H        18.6587304723        4.1741043067       11.4207540542
  C        15.7694563730        7.0661344769       11.4206269179
  H        14.9943855354        7.8421939577       11.4204306504
  C        15.7717829690       17.8878481670        0.6002603716
  H        14.9961776529       18.6633527108        0.5999754686
  C         4.9483924426        7.0626960691        0.6006572799
  H         4.1729688950        7.8383597232        0.6002334966
  C         4.9497882162       17.8843967629       11.4206567022
  H         4.1736912246       18.6593207826       11.4203149806
  C         7.0606994433        7.0776927424       11.4231131418
  H         7.8375617852        7.8519593277       11.4235281115
  C         7.0668392655       17.8889902118        0.5994167208
  H         7.8419094619       18.6650807830        0.5988400028
  C        17.8948501478        7.0650017668        0.6002492258
  H        18.6711214226        7.8398970978        0.6001700083
  C        17.8891700342       17.8889802498       11.4206563357
  H        18.6647188796       18.6646224886       11.4204146171
 Xe         3.4127708981        8.5924869425       14.2535966488
