     409
 i =     176, E =    -5136.6815804704
  N         2.9632268963        5.2421606068       15.9666472195
  C         1.6420024145        5.4951382328       16.2375864443
  N        13.8137357193        5.0825023883        5.0825894890
  C        12.4894429488        5.3374858257        5.3381355109
  N        19.5899050420       17.5390310353       15.9838904828
  C        20.9068678280       17.2842933742       16.2687769580
  N         8.8217436030       17.5992279168        5.1983140752
  C        10.1378500103       17.2910395326        5.4343903891
  N        19.6509282027        5.1797462838        6.7362233427
  C        20.9683970898        5.4620125879        6.4781829033
  N         8.8220130804        5.1977566876       17.5997994923
  C        10.1381094882        5.4336201164       17.2913978731
  N         2.9465419434       17.5403985014        6.7787836433
  C         1.6322171836       17.2628263843        6.5009346948
  N        13.7477346175       17.6104575004       17.6105258762
  C        12.4216614574       17.3593529899       17.3594722093
  N        15.9959287509        2.9779874896        5.1259320011
  C        16.2558080977        1.6640881029        5.4155976543
  N        15.8374484570       13.8559927978       16.0204945874
  C        16.1149494917       12.5352286739       16.2764906808
  N        15.9337515257       19.7262823942       17.5708428376
  C        16.2074256357       21.0403579357       17.2890122165
  N        15.9072414140        8.8420001214        6.6848807789
  C        16.1843498001       10.1632171744        6.4336639590
  N         6.6236714105       19.6967656761        5.1969536289
  C         6.3480579776       21.0130923265        5.4547357738
  N         6.6111670432        8.9555851284       16.0332047937
  C         6.3345068185       10.2745096280       16.3042548862
  N         6.6567014582        3.0930212814       17.5376953920
  C         6.3723208299        1.7777804804       17.2807143423
  N         6.7177261759       13.8115856208        6.8579171975
  C         6.4527659293       12.4962251228        6.5577148337
  N         5.1218502660       15.9614355651        3.0946138794
  C         5.3693750622       16.2527262956        1.7763547430
  N         5.1583612079        5.3034193587       13.8377837868
  C         5.4328282380        5.5475929413       12.5165154320
  N        17.4665373241       15.9937745273       19.7090648071
  C        17.2098630219       16.2604176001       21.0299753171
  N        17.4747665331        5.1414689789        8.8556031916
  C        17.2062922448        5.4237992211       10.1705711296
  N         5.0800711728        6.7635606272       19.7053716461
  C         5.3424386929        6.4795528149       21.0206614852
  N         5.0641078879       17.5950560956        8.9460957256
  C         5.3228063802       17.3237874997       10.2659500199
  N        17.5258526673        6.7059538418        2.9896940627
  C        17.2550176097        6.4471281238        1.6698787965
  N        17.4226893716       17.5463455128       13.8484491268
  C        17.1499728446       17.2724691432       12.5328278364
  N         5.0830225983        3.0197791932        6.7223866263
  C         5.3426517535        1.6990046703        6.4598287648
  N         5.0447862052       13.9055497374       17.6297189444
  C         5.3115890982       12.5899698327       17.3428763495
  N        17.4907619448       19.6707126097        6.7575581155
  C        17.2371970351       20.9886991026        6.4728310678
  N        17.4573867236        8.8966800677       17.5105867413
  C        17.1662186654       10.2124645543       17.2559176644
  N         5.0502530992       19.7773707609       16.0555396423
  C         5.3365511369       21.0959345221       16.3014102180
  N         5.1498384703        8.8855167560        5.1719313672
  C         5.4254574955       10.1953003773        5.4770356759
  N        17.4931121567        3.0279022772       15.9671009374
  C        17.2225669066        1.7114953541       16.2460707152
  N        17.4914090203       13.8093706179        5.1843937257
  C        17.2168089799       12.4911222745        5.4456016694
  N         2.9030351577       16.0546591628       17.6105655336
  C         1.5861718501       16.3033678636       17.3189594456
  N        13.7679938439       15.9289932369        6.6666987590
  C        12.4535768152       16.2107676173        6.3913658967
  N        19.6433014360       15.9618722879        5.1984322977
  C        20.9595697075       16.2353267996        5.4751457747
  N         8.7519247403       16.1157401606       16.1160141573
  C        10.0753879851       16.3724143705       16.3726683473
  N        19.6325218763        6.7542784949       17.5185400396
  C        20.9516744022        6.4883522695       17.2537263359
  N         8.8377997654        6.6032195408        6.6049238797
  C        10.1562647260        6.3366262475        6.3383045957
  N         2.9675446966        6.7593390689        5.2036464199
  C         1.6497087804        6.4893374877        5.4740946905
  N        13.7681510802        6.6660532680       15.9290620137
  C        12.4537781248        6.3904522433       16.2108042577
  N        15.9577380219        5.1812859465       19.6716256005
  C        16.2367405128        5.4425332772       20.9874682406
  N        15.8715555354       15.9841538390        8.8897039860
  C        16.1311385193       16.2596551785       10.2103122389
  N        15.9488130223       17.5338453986        3.0380835367
  C        16.2157365641       17.2702927368        1.7197256330
  N        15.9357597490        6.7403257466       13.8041468018
  C        16.2000035840        6.4598122416       12.4866790161
  N         6.6114228975        5.1385445062        2.9986198511
  C         6.3420161897        5.4280888151        1.6873903100
  N         6.5962565128       16.0717683708       13.9213505308
  C         6.3240173437       16.3248861113       12.5999928043
  N         6.5926591733       17.6262217120       19.7853128364
  C         6.3422667716       17.3271660482       21.1001952696
  N         6.7273598457        6.7047955488        8.8436802931
  C         6.4548728164        6.4806724435       10.1690562866
  N        19.6324011878       17.5183262585        6.7543338180
  C        20.9515523007       17.2535936176        6.4883806946
  N         8.7806188874       17.6696378019       17.6696270597
  C        10.0954832137       17.3880752847       17.3881712092
  N         2.9676482180        5.2034218591        6.7600935132
  C         1.6497368160        5.4736570033        6.4900446110
  N        13.7827119491        5.1690974019       17.5411869277
  C        12.4616473228        5.4176596555       17.2656279917
  N         2.9030133399       17.6105707766       16.0546737943
  C         1.5861585652       17.3189391650       16.3034023928
  N        13.7824095297       17.5407075521        5.1692917235
  C        12.4613745719       17.2652885005        5.4182083694
  N        19.6433883408        5.1984214491       15.9620258398
  C        20.9596780331        5.4751629821       16.2354139865
  N         8.8416815497        5.0514947086        5.0515201881
  C        10.1616687405        5.3217825923        5.3224388162
  N         6.5925854605       19.7853489922       17.6261803990
  C         6.3421875738       21.1002341195       17.3271208569
  N         6.7253005633        8.8431252753        6.7033442956
  C         6.4532658464       10.1686929494        6.4792638727
  N         6.6115881777        2.9986969274        5.1387906301
  C         6.3421250962        1.6874621586        5.4283149038
  N         6.5962620634       13.9212744794       16.0715483861
  C         6.3238279624       12.5999647208       16.3247182580
  N        15.9489281666        3.0379767710       17.5340756645
  C        16.2157938941        1.7196270085       17.2704559351
  N        15.9356006788       13.8039525429        6.7403752725
  C        16.1998103177       12.4864768677        6.4598793945
  N        15.9575238898       19.6713370011        5.1814256369
  C        16.2365607100       20.9871855803        5.4426325768
  N        15.8714923237        8.8895402377       15.9844159325
  C        16.1311098781       10.2101633395       16.2598482272
  N        17.4908847238        6.7575071795       19.6710109347
  C        17.2373250206        6.4727795863       20.9889998702
  N        17.4573633385       17.5103945108        8.8967953571
  C        17.1662050112       17.2557647513       10.2125880104
  N         5.0824929836        6.7217952821        3.0196632603
  C         5.3423602682        6.4594243058        1.6989253926
  N         5.0446500785       17.6297976122       13.9054113797
  C         5.3116520261       17.3429412924       12.5898782176
  N        17.4930063495       15.9668770122        3.0279880330
  C        17.2225134868       16.2459112221        1.7115832892
  N        17.4914615419        5.1842484112       13.8096199993
  C        17.2169203090        5.4454563451       12.4913614138
  N         5.0502906953       16.0556272775       19.7773227801
  C         5.3365875186       16.3014958702       21.0958723965
  N         5.1516737340        5.1734734839        8.8855428535
  C         5.4270413884        5.4784584323       10.1954022452
  N        17.4665233775       19.7089875059       15.9938663122
  C        17.2098585807       21.0298947465       16.2605175282
  N        17.4746912476        8.8553596343        5.1418575375
  C        17.2061423805       10.1703406149        5.4240485531
  N         5.1220145236        3.0947445454       15.9612651407
  C         5.3694045715        1.7764472029       16.2525766587
  N         5.1572234617       13.8377013780        5.3025039067
  C         5.4315490076       12.5164065958        5.5464955373
  N        17.5257401608        2.9893607122        6.7060595141
  C        17.2548864693        1.6695687655        6.4471942487
  N        17.4227320238       13.8483250691       17.5464201700
  C        17.1500095703       12.5327018880       17.2725670835
  N         5.0801016262       19.7053831231        6.7636874363
  C         5.3425255208       21.0206873652        6.4797218677
  N         5.0639656620        8.9462085937       17.5953533110
  C         5.3226086233       10.2660307214       17.3238860313
  N        19.6509368951        6.7357347799        5.1801942236
  C        20.9683931562        6.4776531476        5.4624634408
  N         8.8112730281        6.6920089165       15.9879955010
  C        10.1317310259        6.4076458624       16.2361381267
  N         2.9466410316        6.7788214364       17.5404136428
  C         1.6323359871        6.5009362897       17.2628345108
  N        13.7854185499        6.6383773141        6.6395148037
  C        12.4751462426        6.3515604028        6.3530388651
  N         2.9630623176       15.9668470641        5.2418967679
  C         1.6418605611       16.2376916349        5.4950273234
  N        13.7072834091       16.0543972912       16.0545963927
  C        12.3971235550       16.3442918572       16.3445145136
  N        19.5899224251       15.9838003812       17.5390955246
  C        20.9068809585       16.2687062363       17.2843484613
  N         8.8110304447       15.9879827085        6.6932510758
  C        10.1315010992       16.2361467661        6.4088432133
  N         6.6567463374       17.5376497420        3.0930267109
  C         6.3723977587       17.2807532986        1.7777479024
  N         6.7188694211        6.8589137058       13.8119889748
  C         6.4540325240        6.5588596272       12.4966013176
  N         6.6236803647        5.1968519212       19.6967858135
  C         6.3480278007        5.4546187316       21.0130838939
  N         6.6114959350       16.0330567134        8.9556349838
  C         6.3348178601       16.3042609697       10.2745391380
  N        15.9337599081       17.5707560589       19.7263658965
  C        16.2074290327       17.2889111616       21.0404431042
  N        15.9075988375        6.6847991378        8.8422029054
  C        16.1846526574        6.4335711060       10.1634207660
  N        15.9960759974        5.1257732854        2.9782366734
  C        16.2559672578        5.4154948052        1.6643618616
  N        15.8374166104       16.0203949832       13.8561359086
  C        16.1149288234       16.2763738790       12.5353689066
 Zn        14.5409634469       14.7494164248       14.7495973330
 Br        13.2620607445       13.4164106208       13.4166942742
 Zn        14.7131649026        3.8055767731        3.8056643629
 Br        13.4122727450        2.4849385899        2.4850344161
 Zn         3.8522987648       14.6671020236        3.9859381301
 Br         2.5595845116       13.3256534033        2.6760959950
 Zn         3.8528911592        3.9866692588       14.6669040070
 Br         2.5604905924        2.6770066484       13.3249849294
 Zn         7.9709881170        8.1021824512       14.8122599555
 Br         9.5738840877        9.5988311282       14.2102535706
 Zn         7.9422962446       18.8671773359        3.9117671949
 Br         9.2444042725       20.1746934563        2.5833053759
 Zn        18.7900947821        8.0099864004        3.8667558642
 Br        20.1094552775        9.3346458711        2.5660983185
 Zn        18.7305548962       18.8302697526       14.6919039190
 Br        20.0522008570       20.1357458166       13.3741984991
 Zn         7.9697815926       14.8106528842        8.1018094427
 Br         9.5702448545       14.1976798297        9.5963901537
 Zn         7.9422186006        3.9113555641       18.8675480882
 Br         9.2441604139        2.5827931224       20.1750808148
 Zn        18.7305763828       14.6917827310       18.8303288171
 Br        20.0522628873       13.3741220257       20.1358029562
 Zn        18.7899695509        3.8660185296        8.0101699857
 Br        20.1096027587        2.5656236957        9.3348124633
 Zn        14.6088991488        7.9494611922        7.9497304503
 Br        13.3454079712        9.2883337253        9.2894993041
 Zn        14.6525621347       18.8851547226       18.8852279112
 Br        13.3672540506       20.2148791274       20.2149526305
 Zn         3.7796125495        8.0593338055       18.8682885843
 Br         2.4490733654        9.3425746135       20.1964608008
 Zn         3.7796795264       18.8680850530        8.0593339108
 Br         2.4492987827       20.1964080902        9.3426440821
 Zn        14.6131534871       14.6673787094        8.0047263684
 Br        13.3307616575       13.3205346382        9.3180121427
 Zn        14.6572500211        3.8919009982       18.8294976498
 Br        13.3440259550        2.5805199153       20.1490655605
 Zn         3.7514253240       14.7683410771       18.9192424536
 Br         2.4421210734       13.4483960131       20.2336556491
 Zn         3.8291109615        3.8970382260        8.0420679505
 Br         2.5128588887        2.6005012276        9.3694666311
 Zn         8.0210642468        7.8959358347        7.8943936548
 Br         9.6083924478        9.0436710310        9.0168951872
 Zn         7.8842957892       18.9427648112       18.9427182812
 Br         9.1772510915       20.2668315866       20.2668226374
 Zn        18.7675253373        8.0563149050       18.7990605266
 Br        20.0759199414        9.3735709688       20.1168243440
 Zn        18.7674740412       18.7987574921        8.0563618210
 Br        20.0758380613       20.1166506648        9.3735501848
 Zn        14.6131546716        8.0044998163       14.6676079621
 Br        13.3305306949        9.3175203753       13.3207256727
 Zn        14.6570477791       18.8291685395        3.8920673074
 Br        13.3438413779       20.1487832108        2.5807167220
 Zn         3.8278226360        8.0411809794        3.8964305659
 Br         2.5111179813        9.3677928197        2.5995013214
 Zn         3.7512982018       18.9192652154       14.7682989572
 Br         2.4419978684       20.2338612202       13.4485192941
 Zn         7.8903047332       14.8318764839       14.8317819683
 Br         9.4012740937       13.6448860485       13.6415113071
 Zn         7.8996461557        3.7955902586        3.7955652294
 Br         9.1488325331        2.4524388319        2.4525578425
 Zn        18.7822276965       14.6731807664        3.8947470408
 Br        20.1141023852       13.3788618885        2.5767179683
 Zn        18.7822992477        3.8946837963       14.6733976269
 Br        20.1142466539        2.5766704199       13.3791149537
 Zn         5.8924920725        6.0189059351       16.7833549070
 Zn        16.6591526649       16.7809689746       16.7810532415
 Zn        16.7225887622        5.9080878220        5.9083335740
 Zn         5.8923354868       16.7829271944        6.0188529910
 Zn         5.8952340302        5.9070853784        5.9066928826
 Zn        16.7090558768       16.7341136407        5.9606195825
 Zn         5.8296324689       16.8672655051       16.8671999968
 Zn        16.7091540163        5.9605375393       16.7344899844
  N         3.7021386045        6.0171813007       16.7550522948
  N        14.5459212311        5.8677778004        5.8681317192
  N        18.8430867545       16.7540598704       16.7541411327
  N         8.0708818102       16.8109659391        5.9618663042
  N        18.9046216687        5.9509218506        5.9513288273
  N         8.0711204147        5.9610607105       16.8113624482
  N         3.7019985882       16.7551653612        6.0169967380
  N        14.4741009046       16.8224654070       16.8225785359
  N        16.7627928604        3.7305069710        5.9081424797
  N        16.6294811329       14.5985368834       16.7881063999
  N        16.6952114242       18.9705504805       16.7859400693
  N        16.6895988155        8.1017558908        5.9054834813
  N         5.8561607305       18.9542599928        5.9878054782
  N         5.8440859842        8.2048941874       16.8156562703
  N         5.8986840385        3.8405106375       16.7419628512
  N         5.9332325990       14.5719245498        6.0912470771
  N         5.8985816325       16.7419932914        3.8404450936
  N         5.9342966934        6.0920861830       14.5721369591
  N        16.6952220822       16.7858573939       18.9706325499
  N        16.6897947193        5.9052028802        8.1019849739
  N         5.8561540176        5.9877247219       18.9542713089
  N         5.8442762148       16.8153260986        8.2048685101
  N        16.7628998184        5.9079695040        3.7307902730
  N        16.6294480094       16.7880330022       14.5986654601
  N         5.8504684140        3.7546075272        5.9231431846
  N         5.8229134418       14.6609264426       16.8600143116
  N        16.7171663259       18.9238336857        5.9751664934
  N        16.6740347925        8.1466618836       16.7415651261
  N         5.8118630790       19.0357812110       16.8541987256
  N         5.9368451867        8.1170257662        5.9169794742
  N        16.7214268294        3.7795855751       16.7470831107
  N        16.7151389110       14.5530996644        5.9667917538
  N         3.6496007601       16.8439079714       16.8439006141
  N        14.5222011695       16.7349230868        5.9262253509
  N        18.8915641737       16.7376824129        5.9740382392
  N         8.0199181753       16.8978487540       16.8979418961
  N        18.8916791037        5.9739776916       16.7378913345
  N         8.0928799149        5.8285140568        5.8291085700
  N         3.7141642375        5.9800101943        5.9804062449
  N        14.5224204451        5.9259430028       16.7352912899
  N        16.7173358721        5.9750564567       18.9241257269
  N        16.6740544351       16.7413125630        8.1467987853
  N        16.7212873570       16.7468178449        3.7796776991
  N        16.7152237788        5.9666895358       14.5533321123
  N         5.8500439728        5.9226832044        3.7544973637
  N         5.8227594683       16.8601569255       14.6608951951
  N         5.8119108464       16.8542596378       19.0357266186
  N         5.9389111761        5.9184452167        8.1172287085
  C        11.2245054863       15.8104106040       15.8107329407
  H        11.2006002131       15.0354188309       15.0357497560
  C        11.3326599280        4.7804685547        4.7807430766
  H        11.3452520650        4.0056044718        4.0052548008
  C         0.4859444869       15.6844484576        4.9379390646
  H         0.4925138607       14.9051227264        4.1664265930
  C         0.4860388608        4.9380283653       15.6844085495
  H         0.4925506801        4.1665524014       14.9050530437
  C        11.2918040500        6.9149725406       15.6456267349
  H        11.2898869907        7.6655605119       14.8480456369
  C        11.3023949941       17.8456251273        4.8952983813
  H        11.3060042122       18.6507968770        4.1509777667
  C         0.4889286575        7.0345569490        4.9199744365
  H         0.4881962091        7.8090898150        4.1434551217
  C         0.4266253252       17.8507566994       15.7351242448
  H         0.4263387690       18.6263108789       14.9596294635
  C        11.2916138279       15.6458743018        6.9163832862
  H        11.2896396446       14.8484174920        7.6671437366
  C        11.3027144614        4.8947718988       17.8461166071
  H        11.3064013489        4.1506931687       18.6514959008
  C         0.4266528645       15.7350651413       17.8507850847
  H         0.4263907379       14.9595585465       18.6263287474
  C         0.4889218556        4.9196399196        7.0352347393
  H         0.4880801133        4.1432302179        7.8098884766
  C        11.3108800184        6.8907947598        6.8931084675
  H        11.2966442834        7.6654731288        7.6677714699
  C        11.2719167577       17.9228293171       17.9228814313
  H        11.2924893670       18.6980948885       18.6980642258
  C         0.4668918889        7.0401894615       17.8120238677
  H         0.4596112308        7.8105818330       18.5927068571
  C         0.4667497910       17.8119225071        7.0402547242
  H         0.4594325355       18.5925526325        7.8106930635
  C        15.5625374619       11.3725976198       15.7304675092
  H        14.7746317405       11.3734461257       14.9677097145
  C        15.7047462381        0.5036959239        4.8701611613
  H        14.9405052879        0.5009739315        4.0834780606
  C         4.8752088289       11.3727994379        4.9682251186
  H         4.0941775969       11.4008175863        4.1981616597
  C         4.8094693982        0.6124576583       15.7205067619
  H         4.0418368587        0.6053888397       14.9374366349
  C        15.6413668037       11.3223304218        6.9948800705
  H        14.8646860090       11.3197845820        7.7691907827
  C        15.6681332585        0.5661656408       17.8360847996
  H        14.9006987342        0.5754861506       18.6196330243
  C         4.7689239881       11.4211535789       17.8831343387
  H         3.9983035600       11.4102582568       18.6632394677
  C         4.7978868389        0.5447096461        7.0266648174
  H         4.0314241527        0.5510931795        7.8111077009
  C         6.8738638009       11.4453226258       15.7628476054
  H         7.6608195408       11.4546897331       15.0002596951
  C         6.8878667044        0.5252414229        4.8827686142
  H         7.6533941783        0.5185238475        4.0971314403
  C        17.7634246823       11.3334058605        4.8876642057
  H        18.5419672997       11.3367867400        4.1152555240
  C        17.7606570458        0.5445023877       15.6981081450
  H        18.5285576796        0.5351008139       14.9152226891
  C         7.0068421387       11.3146316729        7.0603245226
  H         7.7950524389       11.2755705934        7.8196319291
  C         6.9017201350        0.6226164231       17.8594865887
  H         7.6688034282        0.6289726019       18.6435941191
  C        17.7174036201       11.3725784879       17.8037434937
  H        18.5076827665       11.3728593184       18.5643538881
  C        17.7876624200        0.5112340414        7.0187396033
  H        18.5507607532        0.5144345533        7.8063774960
  C        15.5625534386       15.7303025418       11.3727500316
  H        14.7746686462       14.9675220038       11.3735844685
  C        15.7049256179        4.8700434341        0.5039623554
  H        14.9407044464        4.0833433586        0.5012236264
  C         4.8094401498       15.7206458705        0.6123873297
  H         4.0417720431       14.9376084312        0.6053452202
  C         4.8766261638        4.9695055870       11.3727597287
  H         4.0955559320        4.1994320627       11.4005151069
  C         6.8742587238       15.7630383986       11.4453919959
  H         7.6612217584       15.0004234428       11.4548376538
  C         6.8878750393        4.8826639967        0.5252031998
  H         7.6534826154        4.0970979039        0.5184765518
  C        17.7606408320       15.6979900242        0.5445832953
  H        18.5285442115       14.9151075597        0.5351809074
  C        17.7635065196        4.8874198708       11.3336752561
  H        18.5419815313        4.1149491604       11.3371095054
  C        15.6416821184        6.9948582218       11.3225034994
  H        14.8650661565        7.7692386075       11.3198852286
  C        15.6681149551       17.8359585789        0.5662607835
  H        14.9006808552       18.6195045139        0.5755825248
  C         4.7976377727        7.0263569495        0.5446612559
  H         4.0311079246        7.8107348125        0.5510859063
  C         4.7690232775       17.8830854667       11.4209948667
  H         3.9983311874       18.6631211363       11.4099996936
  C         7.0081856251        7.0616648659       11.3151267982
  H         7.7959138705        7.8214234493       11.2765595682
  C         6.9018410452       17.8594875474        0.6225831633
  H         7.6689760941       18.6435430571        0.6289428191
  C        17.7877583241        7.0187016455        0.5115446364
  H        18.5508243617        7.8063743285        0.5147410537
  C        17.7173649683       17.8036389095       11.3726927882
  H        18.5076269124       18.5642662070       11.3729619984
 Kr         9.6030180387       11.3054913877       11.3146543797
