     409
 i =     176, E =    -5136.7113277534
  N         2.8665379095        5.2038858556       16.0245110104
  C         1.5484761372        5.4736427750       16.2940939116
  N        13.6826818324        5.2026666011        5.2027368636
  C        12.3649033321        5.4735089462        5.4735415634
  N        19.5523911441       17.5775459711       16.0214579023
  C        20.8702357832       17.3081015351       16.2923866897
  N         8.7284039371       17.5807657780        5.2053353441
  C        10.0462948341       17.3086117016        5.4738111903
  N        19.5444019322        5.2001900114        6.7565570302
  C        20.8623088214        5.4720118460        6.4878311501
  N         8.7282374145        5.2053501732       17.5807311288
  C        10.0461397706        5.4738100872       17.3086010351
  N         2.8650950909       17.5801445294        6.7610442313
  C         1.5475290630       17.3094993443        6.4897870955
  N        13.6906688776       17.5768141002       17.5768997134
  C        12.3727865097       17.3071005409       17.3071359470
  N        15.8356876691        3.0472767509        5.2009894761
  C        16.1060712090        1.7295723515        5.4705746760
  N        15.8447724131       13.8673546878       16.0194362032
  C        16.1148401112       12.5497217870       16.2889032154
  N        15.8444975934       19.7301624368       17.5766848672
  C        16.1135705290       21.0477689975       17.3059808889
  N        15.8424760684        8.9120719404        6.7621490450
  C        16.1154412966       10.2294042345        6.4943599008
  N         6.5740243062       19.7355483174        5.2059437529
  C         6.3031178442       21.0530753876        5.4756694020
  N         6.5751279900        8.9149985301       16.0245294422
  C         6.3063684964       10.2327628866       16.2951068323
  N         6.5753362320        3.0518779087       17.5823679805
  C         6.3076071828        1.7339593068       17.3114840767
  N         6.5731040111       13.8714815330        6.7608920935
  C         6.3035337701       12.5539448000        6.4902586987
  N         5.0211862046       16.0258775444        3.0506344660
  C         5.2927419311       16.2953839122        1.7332003649
  N         5.0198457707        5.2032093529       13.8719243232
  C         5.2891870255        5.4733538284       12.5542023954
  N        17.3983225914       16.0188492129       19.7305271670
  C        17.1280805426       16.2890015454       21.0481645879
  N        17.3952699868        5.2039040520        8.9111753985
  C        17.1292145079        5.4768514583       10.2289336181
  N         5.0187907866        6.7624444150       19.7350275279
  C         5.2877337306        6.4918811962       21.0526463572
  N         5.0207923270       17.5816634914        8.9157808906
  C         5.2916214775       17.3116616321       10.2331875851
  N        17.3889533867        6.7585218716        3.0474903301
  C        17.1203030389        6.4874269462        1.7297787990
  N        17.4001571126       17.5754118691       13.8669393929
  C        17.1302591657       17.3047465105       12.5494001836
  N         5.0158910434        3.0511008126        6.7616823089
  C         5.2861923055        1.7336439821        6.4914931559
  N         5.0236613180       13.8719033882       17.5819521908
  C         5.2929430611       12.5541958177       17.3117757249
  N        17.3920005879       19.7311714579        6.7567612727
  C        17.1218607879       21.0487167085        6.4865540135
  N        17.3951538270        8.9105440311       17.5772392981
  C        17.1277568765       10.2283239820       17.3056545541
  N         5.0250005551       19.7345960161       16.0252534635
  C         5.2947555138       21.0522417554       16.2951168864
  N         5.0173862998        8.9157608452        5.2039535896
  C         5.2880856657       10.2332357732        5.4737253534
  N        17.3947121104        3.0472103144       16.0181778480
  C        17.1261932456        1.7293078212       16.2886872355
  N        17.3986108147       13.8672767347        5.2044356235
  C        17.1307786827       12.5497288536        5.4770000987
  N         2.8698497280       16.0251028351       17.5812671214
  C         1.5520867137       16.2940897840       17.3097869279
  N        13.6863516882       16.0189731126        6.7564525985
  C        12.3684367066       16.2900994226        6.4869673960
  N        19.5488644414       16.0225507619        5.2006233970
  C        20.8665017595       16.2931801851        5.4718867996
  N         8.7314633075       16.0234430136       16.0233914100
  C        10.0497718592       16.2927579156       16.2927292366
  N        19.5471391294        6.7568376224       17.5788190625
  C        20.8653116262        6.4877351544       17.3088286120
  N         8.7254768653        6.7608059750        6.7607645965
  C        10.0432061247        6.4900726902        6.4900538221
  N         2.8622828118        6.7620806512        5.2055441549
  C         1.5445069121        6.4904810546        5.4746739904
  N        13.6862473982        6.7563988341       16.0190387750
  C        12.3683246043        6.4869318330       16.2901390080
  N        15.8387223774        5.1986662519       19.7308256560
  C        16.1075644744        5.4693914140       21.0485693130
  N        15.8406180862       16.0207610730        8.9115136237
  C        16.1126988009       16.2894711435       10.2289228220
  N        15.8411979195       17.5756516367        3.0462778669
  C        16.1119394746       17.3054711107        1.7288293697
  N        15.8450338383        6.7620991372       13.8677630075
  C        16.1166217231        6.4941645862       12.5501702298
  N         6.5700609905        5.2051360811        3.0517690969
  C         6.3010886600        5.4753544357        1.7340528547
  N         6.5775160891       16.0248991211       13.8714530733
  C         6.3076466622       16.2952619021       12.5537951017
  N         6.5807839590       17.5814911197       19.7351146934
  C         6.3103321389       17.3111154540       21.0527033882
  N         6.5712356589        6.7616946326        8.9153959095
  C         6.3025095137        6.4906599840       10.2329453111
  N        19.5472786039       17.5787671413        6.7569052158
  C        20.8654560972       17.3088317016        6.4877567553
  N         8.7336112231       17.5795300786       17.5794606674
  C        10.0510869667       17.3084868419       17.3084513853
  N         2.8623107596        5.2055932362        6.7620170137
  C         1.5445240886        5.4747008037        6.4904485933
  N        13.6861191682        5.2001737527       17.5757256427
  C        12.3682902358        5.4714004535       17.3061656343
  N         2.8698235260       17.5813181524       16.0250167691
  C         1.5520648202       17.3098264621       16.2940352599
  N        13.6862751780       17.5756545889        5.2002236405
  C        12.3684343439       17.3061224575        5.4714355280
  N        19.5487169826        5.2005513286       16.0226034527
  C        20.8663549342        5.4718641973       16.2931754098
  N         8.7243368729        5.2044182682        5.2043608824
  C        10.0424458214        5.4743053102        5.4742807575
  N         6.5807477989       19.7351973439       17.5814068912
  C         6.3102472077       21.0527662012       17.3110434700
  N         6.5712610302        8.9154622194        6.7616315292
  C         6.3025556326       10.2330234704        6.4905895841
  N         6.5700676104        3.0518560731        5.2050150146
  C         6.3011309747        1.7341235319        5.4752432541
  N         6.5774859145       13.8715214159       16.0248483569
  C         6.3075946214       12.5538698426       16.2952045245
  N        15.8410274649        3.0461736294       17.5757426123
  C        16.1117799788        1.7287308985       17.3055518394
  N        15.8451487267       13.8676977666        6.7621574628
  C        16.1167171622       12.5501061859        6.4942194114
  N        15.8388454358       19.7307271887        5.1987585737
  C        16.1076650638       21.0484695141        5.4694875921
  N        15.8405126749        8.9114417091       16.0208455385
  C        16.1126144716       10.2288591566       16.2895482957
  N        17.3918753489        6.7566656675       19.7312469491
  C        17.1217555812        6.4864537436       21.0488020801
  N        17.3952875008       17.5771469460        8.9106334227
  C        17.1278560844       17.3055744879       10.2284042883
  N         5.0158739171        6.7617932942        3.0510464439
  C         5.2861434628        6.4916056045        1.7335964063
  N         5.0236808516       17.5819950152       13.8718120486
  C         5.2929925140       17.3118282479       12.5541055699
  N        17.3948947883       16.0180936570        3.0472929394
  C        17.1263595556       16.2886110673        1.7293940719
  N        17.3984554732        5.2043554678       13.8673574775
  C        17.1306652239        5.4769318875       12.5498067581
  N         5.0250259134       16.0253595122       19.7345482969
  C         5.2948336735       16.2952083432       21.0521999454
  N         5.0173730533        5.2040096022        8.9156746116
  C         5.2880394040        5.4737889037       10.2331462082
  N        17.3982494908       19.7304513201       16.0189467332
  C        17.1279714310       21.0480859897       16.2890831575
  N        17.3952791862        8.9110881776        5.2039578587
  C        17.1292576454       10.2288507426        5.4769093869
  N         5.0210169649        3.0506702801       16.0257757157
  C         5.2925877974        1.7332539679       16.2952943321
  N         5.0199530625       13.8720247746        5.2031366351
  C         5.2892759122       12.5542901051        5.4732803624
  N        17.3889774182        3.0474101956        6.7586331288
  C        17.1203557315        1.7297028386        6.4875352784
  N        17.4001688962       13.8668525557       17.5754798898
  C        17.1302311087       12.5493110832       17.3048164254
  N         5.0189442900       19.7350708736        6.7623464372
  C         5.2878551377       21.0527008696        6.4917743050
  N         5.0206796966        8.9158655698       17.5816011192
  C         5.2915282034       10.2332707968       17.3115991712
  N        19.5443732182        6.7564995427        5.2002337299
  C        20.8622890960        6.4878018451        5.4720358369
  N         8.7281102754        6.7605764372       16.0234594831
  C        10.0460865709        6.4890076232       16.2922853154
  N         2.8649609680        6.7611221703       17.5800589065
  C         1.5473935928        6.4898360076       17.3094299344
  N        13.6837623176        6.7591888430        6.7592377903
  C        12.3655929095        6.4893237038        6.4893474801
  N         2.8666758887       16.0246236376        5.2038057260
  C         1.5486120873       16.2941721906        5.4735888323
  N        13.6894011981       16.0204649615       16.0205302316
  C        12.3718051947       16.2913522912       16.2913795594
  N        19.5524301176       16.0214013715       17.5775834472
  C        20.8702594568       16.2923715759       17.3081107155
  N         8.7282165719       16.0235055259        6.7605460982
  C        10.0462089344       16.2922980217        6.4890055322
  N         6.5755410015       17.5824220010        3.0518147011
  C         6.3077791604       17.3115453567        1.7338891819
  N         6.5730068191        6.7609709927       13.8713988564
  C         6.3034497025        6.4903346566       12.5538706289
  N         6.5738560093        5.2060243759       19.7354836864
  C         6.3029922702        5.4757649929       21.0530047899
  N         6.5752294179       16.0245988323        8.9149227537
  C         6.3064590165       16.2951706587       10.2326918735
  N        15.8445455403       17.5765738318       19.7302655460
  C        16.1136682401       17.3058913681       21.0478654950
  N        15.8424612333        6.7620994051        8.9121303577
  C        16.1154013966        6.4943052425       10.2294684064
  N        15.8356818239        5.2008700855        3.0473820170
  C        16.1060288965        5.4704653057        1.7296638850
  N        15.8447742884       16.0193632398       13.8674137034
  C        16.1148665144       16.2888280302       12.5497936102
 Zn        14.5517040488       14.7259530386       14.7259983480
 Br        13.2355722613       13.4125117146       13.4125588411
 Zn        14.5451915484        3.9071728845        3.9072877082
 Br        13.2270927971        2.5945082305        2.5946118976
 Zn         3.7297334592       14.7312476218        3.9081864431
 Br         2.4138246509       13.4178623825        2.5942876668
 Zn         3.7296364084        3.9082624376       14.7311291575
 Br         2.4136977373        2.5943891207       13.4177371928
 Zn         7.8644087476        8.0544282724       14.7290046908
 Br         9.1813059290        9.3676602327       13.4155867678
 Zn         7.8655928075       18.8756632757        3.9118135086
 Br         9.1820558790       20.1905853373        2.5996140242
 Zn        18.6808268964        8.0512704291        3.9058809259
 Br        19.9980986580        9.3639789712        2.5923619330
 Zn        18.6914393042       18.8709775519       14.7256076193
 Br        20.0067916784       20.1845921749       13.4114972766
 Zn         7.8645207611       14.7290494245        8.0543890212
 Br         9.1813773750       13.4156086133        9.3676345603
 Zn         7.8653104767        3.9118590901       18.8756271094
 Br         9.1818030123        2.5996527105       20.1905319069
 Zn        18.6915393587       14.7255340692       18.8710089601
 Br        20.0068409906       13.4113845510       20.1846194113
 Zn        18.6808633913        3.9058482780        8.0513422945
 Br        19.9981181042        2.5923378526        9.3640829300
 Zn        14.5483794451        8.0532610547        8.0532923487
 Br        13.2349493035        9.3681573733        9.3681920694
 Zn        14.5527396907       18.8711586989       18.8712747331
 Br        13.2376484413       20.1851029024       20.1852397336
 Zn         3.7277232775        8.0555928353       18.8739944865
 Br         2.4112529439        9.3698431566       20.1866956338
 Zn         3.7278335549       18.8740577787        8.0555266631
 Br         2.4113729577       20.1867934591        9.3697503159
 Zn        14.5496226417       14.7260767334        8.0524174173
 Br        13.2344883861       13.4123155808        9.3666694253
 Zn        14.5487708973        3.9045230248       18.8698178599
 Br        13.2322290701        2.5905070646       20.1825081747
 Zn         3.7320586089       14.7310358376       18.8752929282
 Br         2.4163924736       13.4181303757       20.1898891749
 Zn         3.7258541701        3.9102772230        8.0553536935
 Br         2.4094475239        2.5976348897        9.3698026936
 Zn         7.8620495118        8.0548463360        8.0548136259
 Br         9.1798102869        9.3677940560        9.3677713894
 Zn         7.8750997763       18.8742314682       18.8741395414
 Br         9.1897239396       20.1884070492       20.1883076211
 Zn        18.6830808433        8.0508859065       18.8729259399
 Br        19.9997803606        9.3634110879       20.1872612246
 Zn        18.6832281592       18.8728637132        8.0509642116
 Br        19.9999231934       20.1871772419        9.3635200138
 Zn        14.5495429415        8.0523681196       14.7261373355
 Br        13.2344247037        9.3666273541       13.4123635656
 Zn        14.5489108668       18.8697445294        3.9045780086
 Br        13.2324047239       20.1824448435        2.5905434741
 Zn         3.7258308026        8.0554203241        3.9102440350
 Br         2.4094469030        9.3698964947        2.5976068875
 Zn         3.7320478271       18.8753198706       14.7309219946
 Br         2.4163975595       20.1899214730       13.4179986221
 Zn         7.8678366131       14.7292099167       14.7291712655
 Br         9.1837010251       13.4154526892       13.4154310793
 Zn         7.8591782410        3.9102188086        3.9100993043
 Br         9.1760712510        2.5968633505        2.5967575506
 Zn        18.6874562532       14.7257780574        3.9072643703
 Br        20.0041852783       13.4116675300        2.5948699682
 Zn        18.6872238840        3.9071820215       14.7258506280
 Br        20.0040026753        2.5947814411       13.4117774262
 Zn         5.7942546737        5.9872759332       16.8071708501
 Zn        16.6177618596       16.7987886120       16.7989794247
 Zn        16.6120740265        5.9810562669        5.9812200665
 Zn         5.7943604436       16.8072839221        5.9871784067
 Zn         5.7917402070        5.9875709825        5.9874695258
 Zn        16.6144764832       16.7992760007        5.9791238994
 Zn         5.7978575360       16.8075400013       16.8074312685
 Zn        16.6143710882        5.9789517054       16.7994524010
  N         3.6122478783        5.9829200909       16.8026207747
  N        14.4295945340        5.9806365212        5.9807142833
  N        18.8056809200       16.7990598135       16.7991184474
  N         7.9816930743       16.8030702094        5.9837935335
  N        18.7978849225        5.9776002296        5.9776661995
  N         7.9815500775        5.9838209093       16.8030227077
  N         3.6123766366       16.8027340364        5.9828265482
  N        14.4365212164       16.7983509893       16.7984516821
  N        16.6118857886        3.7942259184        5.9802196239
  N        16.6222614701       14.6139095330       16.7978609943
  N        16.6216066913       18.9835093958       16.7979738119
  N        16.6168586656        8.1648223112        5.9815492578
  N         5.7969665108       18.9886557571        5.9844302519
  N         5.7973061227        8.1687738383       16.8029029711
  N         5.7971580975        3.7983203295       16.8045523288
  N         5.7965775900       14.6187754991        5.9822511383
  N         5.7973495817       16.8046280886        3.7982434368
  N         5.7964634268        5.9823240100       14.6187013366
  N        16.6216403977       16.7978602028       18.9836038442
  N        16.6168618173        5.9814979540        8.1649003831
  N         5.7967921842        5.9845095499       18.9885811958
  N         5.7974244304       16.8029668501        8.1686994406
  N        16.6118866550        5.9800982287        3.7943077640
  N        16.6222450654       16.7977946399       14.6140034986
  N         5.7926809908        3.7986349103        5.9833816662
  N         5.8006903493       14.6186865953       16.8033759473
  N        16.6157361142       18.9841332517        5.9776598995
  N        16.6165452310        8.1641557372       16.7998824732
  N         5.8028978804       18.9883623156       16.8035456266
  N         5.7937686088        8.1688609409        5.9832593559
  N        16.6172766971        3.7934996263       16.7968797496
  N        16.6206380520       14.6143074212        5.9819068875
  N         3.6163257670       16.8039895371       16.8039006849
  N        14.4327150902       16.7969851250        5.9779274250
  N        18.8014814586       16.8004529050        5.9782656002
  N         7.9858560268       16.8019835067       16.8019086406
  N        18.8013384588        5.9781655331       16.8005328480
  N         7.9782455841        5.9828859880        5.9828215733
  N         3.6089148045        5.9845169005        5.9844585304
  N        14.4325887641        5.9778708656       16.7970635849
  N        16.6156036526        5.9775690190       18.9842370873
  N        16.6166831011       16.7997933374        8.1642266193
  N        16.6174505700       16.7967935334        3.7935955833
  N        16.6204884858        5.9818313276       14.6143853771
  N         5.7926916819        5.9834945139        3.7985764671
  N         5.8006988135       16.8034217996       14.6186036492
  N         5.8029047724       16.8036528820       18.9883134683
  N         5.7937583631        5.9833100406        8.1687724103
  C        11.2101031902       15.7425236787       15.7425207618
  H        11.2091818617       14.9670228125       14.9670209212
  C        11.2033092468        4.9245039545        4.9245085281
  H        11.2027950458        4.1489946292        4.1490008026
  C         0.3881377128       15.7442610279        4.9231699813
  H         0.3891850008       14.9688808580        4.1475453969
  C         0.3879967671        4.9231961609       15.7442169462
  H         0.3890455269        4.1475736324       14.9688297620
  C        11.2071687464        7.0371325745       15.7414576464
  H        11.2071494490        7.8124514278       14.9657734548
  C        11.2073658642       17.8569657528        4.9232874232
  H        11.2074634066       18.6328489040        4.1481663083
  C         0.3833193776        7.0386903323        4.9240049820
  H         0.3833320852        7.8143500929        4.1486526110
  C         0.3911106587       17.8584830461       15.7436192507
  H         0.3911723020       18.6340944471       14.9682184175
  C        11.2072641820       15.7414413511        7.0371534538
  H        11.2072155396       14.9657591334        7.8124707433
  C        11.2071934134        4.9232733114       17.8569781533
  H        11.2072585771        4.1481513354       18.6328638201
  C         0.3911599584       15.7436406506       17.8584702389
  H         0.3912677216       14.9682437018       18.6340821042
  C         0.3833638823        4.9240065869        7.0386886243
  H         0.3834202248        4.1486519656        7.8143509834
  C        11.2047566660        7.0391026257        7.0391041802
  H        11.2051823336        7.8146100465        7.8146118298
  C        11.2125160576       17.8573514845       17.8573497623
  H        11.2135564396       18.6328607849       18.6328604913
  C         0.3856927569        7.0384595679       17.8584166098
  H         0.3847841236        7.8141565494       18.6337151138
  C         0.3858321549       17.8584582370        7.0384455206
  H         0.3849250927       18.6337571243        7.8141430061
  C        15.5643602193       11.3896406264       15.7389836350
  H        14.7888483716       11.3901576071       14.9634754568
  C        15.5577366002        0.5689116424        4.9195945282
  H        14.7828654982        0.5686869183        4.1434354728
  C         4.7395571964       11.3939694211        4.9230668278
  H         3.9645446876       11.3941803487        4.1470332746
  C         4.7441796625        0.5723096633       15.7451907280
  H         3.9686019398        0.5715916457       14.9697247993
  C        15.5678094517       11.3900698381        7.0457173649
  H        14.7928453629       11.3904884381        7.8217812588
  C        15.5634918965        0.5679503493       17.8560992186
  H        14.7885849250        0.5674581887       18.6322072262
  C         4.7429241994       11.3940436540       17.8619337922
  H         3.9678000285       11.3944202600       18.6378340498
  C         4.7373572996        0.5728556804        7.0415696043
  H         3.9619669598        0.5723297542        7.8172376396
  C         6.8564246556       11.3930786507       15.7450011515
  H         7.6313884395       11.3926181714       14.9689077899
  C         6.8516512344        0.5739568231        4.9253895789
  H         7.6269447130        0.5745394503        4.1496171764
  C        17.6795052293       11.3889503698        4.9267463615
  H        18.4534313828       11.3883832861        4.1496306523
  C        17.6762168726        0.5690277317       15.7384677964
  H        18.4508757941        0.5695349078       14.9620861204
  C         6.8523232123       11.3933608867        7.0407764493
  H         7.6270010711       11.3930715904        7.8171716031
  C         6.8586150500        0.5738778232       17.8611140206
  H         7.6337226681        0.5747027897       18.6370482105
  C        17.6789383024       11.3884333874       17.8549296497
  H        18.4541692656       11.3877994061       18.6307325592
  C        17.6702871346        0.5693478750        7.0374487732
  H        18.4450461191        0.5695394283        7.8137441947
  C        15.5644185523       15.7389145046       11.3896962373
  H        14.7888990655       14.9634035309       11.3901924738
  C        15.5576615865        4.9194863157        0.5690194989
  H        14.7827978752        4.1433304454        0.5688107206
  C         4.7442830542       15.7452811602        0.5722790017
  H         3.9687016672       14.9698365630        0.5715876432
  C         4.7394903900        4.9231399466       11.3938717189
  H         3.9644686409        4.1471020034       11.3940731219
  C         6.8564998504       15.7450612800       11.3930122030
  H         7.6314618725       14.9689701918       11.3925645440
  C         6.8515646421        4.9254959305        0.5738688074
  H         7.6268642611        4.1497152752        0.5744236811
  C        17.6763590803       15.7383967875        0.5690987718
  H        18.4510173703       14.9620156215        0.5695839051
  C        17.6794225561        4.9266773370       11.3890444544
  H        18.4533413688        4.1495540345       11.3884989523
  C        15.5677446276        7.0456674062       11.3901221242
  H        14.7927860635        7.8217335633       11.3905204884
  C        15.5636226977       17.8560135496        0.5680615574
  H        14.7887096009       18.6321192712        0.5675878418
  C         4.7372794102        7.0416798454        0.5728173485
  H         3.9618898623        7.8173573991        0.5723162497
  C         4.7429955513       17.8619944764       11.3939501691
  H         3.9678744780       18.6378958980       11.3943161718
  C         6.8522543865        7.0408475779       11.3932907072
  H         7.6269379283        7.8172446582       11.3930147449
  C         6.8587605486       17.8611748257        0.5737925118
  H         7.6338708059       18.6370914950        0.5745854007
  C        17.6702128511        7.0373501577        0.5694191731
  H        18.4449679502        7.8136362523        0.5695911635
  C        17.6789998502       17.8548474669       11.3885316369
  H        18.4542428622       18.6306532201       11.3879198452
 Kr        19.1616763304       10.4486355419       10.4487532266
