     409
 i =     176, E =    -5136.7144092603
  N         3.0024548391        5.2068269020       16.0337071691
  C         1.6840498090        5.4761119995       16.3004681059
  N        13.8059268373        5.2040845292        5.2040870514
  C        12.4889403070        5.4765910509        5.4765924787
  N        19.6936107183       17.5774429559       16.0209427007
  C        21.0114452043       17.3103898768       16.2945889535
  N         8.8646964801       17.5839974018        5.2122148990
  C        10.1824344237       17.3103496480        5.4782140177
  N        19.6711889303        5.2008723950        6.7565980942
  C        20.9888296396        5.4737330144        6.4893966345
  N         8.8647011935        5.2122103278       17.5839967411
  C        10.1824303375        5.4782095867       17.3103481807
  N         2.9981739827       17.5863236166        6.7652841669
  C         1.6811389837       17.3146973616        6.4931070067
  N        13.8342047545       17.5774702729       17.5774702251
  C        12.5158064971       17.3085809837       17.3085794189
  N        15.9600839487        3.0469141254        5.2012011043
  C        16.2328147041        1.7293167884        5.4701245786
  N        15.9842072073       13.8665068393       16.0194259931
  C        16.2521680172       12.5486113250       16.2900773092
  N        15.9866111267       19.7296289287       17.5753559589
  C        16.2529702008       21.0475403634       17.3038480676
  N        15.9658129236        8.9115326724        6.7574186560
  C        16.2380323538       10.2287184198        6.4871591103
  N         6.7095154166       19.7431641764        5.2144004362
  C         6.4357286685       21.0605307472        5.4831980285
  N         6.7115662345        8.9186967797       16.0298974636
  C         6.4422003837       10.2365957845       16.2991504255
  N         6.7130795710        3.0588851226       17.5896805269
  C         6.4459342949        1.7405630088       17.3190304935
  N         6.7029149767       13.8770903930        6.7683941121
  C         6.4288360339       12.5598907787        6.5003307945
  N         5.1583014476       16.0333189990        3.0564024105
  C         5.4306994819       16.3029686285        1.7391312150
  N         5.1481541946        5.2117234237       13.8798574774
  C         5.4134403593        5.4843796216       12.5615748052
  N        17.5394079727       16.0173220585       19.7315594469
  C        17.2672094630       16.2868937609       21.0489668556
  N        17.5203346582        5.2000411187        8.9091279128
  C        17.2529320949        5.4706990453       10.2271337217
  N         5.1519784170        6.7688585096       19.7404765740
  C         5.4193779887        6.4983177431       21.0586912356
  N         5.1544641595       17.5852162862        8.9206028693
  C         5.4262524200       17.3147125324       10.2379566567
  N        17.5175921312        6.7556777281        3.0483880834
  C        17.2493583525        6.4849749885        1.7305816208
  N        17.5390876743       17.5757778484       13.8650761272
  C        17.2672835408       17.3062255716       12.5476634896
  N         5.1426163797        3.0577639172        6.7692166889
  C         5.4145717662        1.7403699725        6.4987190167
  N         5.1636044991       13.8773391907       17.5853050036
  C         5.4305419326       12.5592387357       17.3145459970
  N        17.5275836670       19.7323181709        6.7540420631
  C        17.2544373609       21.0494330055        6.4844037616
  N        17.5306593885        8.9087470612       17.5786943898
  C        17.2630800845       10.2265765898       17.3074477316
  N         5.1671907488       19.7401152332       16.0307670980
  C         5.4351004138       21.0579618818       16.3017106487
  N         5.1374248887        8.9225938513        5.2156269525
  C         5.4089563786       10.2400867267        5.4857507327
  N        17.5311026713        3.0482521650       16.0177849287
  C        17.2627029743        1.7301952900       16.2873021848
  N        17.5307113964       13.8656770610        5.2018825633
  C        17.2580172995       12.5483604944        5.4712699211
  N         3.0114866506       16.0322979022       17.5882358384
  C         1.6935550847       16.3000308421       17.3157564710
  N        13.8222777702       16.0198213859        6.7567752004
  C        12.5043460909       16.2906530733        6.4882681776
  N        19.6856781934       16.0219920384        5.2012512213
  C        21.0026947913       16.2946112370        5.4729304877
  N         8.8731396553       16.0267134998       16.0267124816
  C        10.1915833300       16.2956489441       16.2956467474
  N        19.6818029142        6.7568169072       17.5789877767
  C        20.9999420465        6.4886530854       17.3103920706
  N         8.8533689838        6.7692506460        6.7692505332
  C        10.1705138758        6.4973179190        6.4973178774
  N         2.9873672065        6.7666744056        5.2107786515
  C         1.6698711201        6.4942532360        5.4785824669
  N        13.8222693004        6.7567787683       16.0198158503
  C        12.5043472948        6.4882659364       16.2906516489
  N        15.9716980590        5.1980566582       19.7295410815
  C        16.2385271893        5.4689585273       21.0477367115
  N        15.9763668412       16.0213338828        8.9100237450
  C        16.2482200083       16.2909611364       10.2274557214
  N        15.9754744604       17.5741301279        3.0459121971
  C        16.2474673698       17.3034899703        1.7286454056
  N        15.9751165629        6.7579827701       13.8678287414
  C        16.2426819913        6.4872720025       12.5498713296
  N         6.6982445645        5.2132773520        3.0603358744
  C         6.4302033995        5.4830269001        1.7421550440
  N         6.7176359005       16.0284088992       13.8751692399
  C         6.4454449578       16.2982353253       12.5578242296
  N         6.7224634345       17.5869893229       19.7415171810
  C         6.4504875013       17.3176771229       21.0590651819
  N         6.6951021117        6.7701254089        8.9215334749
  C         6.4257207555        6.5002452909       10.2390219801
  N        19.6818002069       17.5789848160        6.7568185227
  C        20.9999473970       17.3103920403        6.4886532129
  N         8.8762894046       17.5831137514       17.5831116020
  C        10.1936794778       17.3114440996       17.3114409922
  N         2.9873643825        5.2107720153        6.7666753915
  C         1.6698736987        5.4785799788        6.4942521415
  N        13.8213639279        5.2005846664       17.5754358852
  C        12.5037783365        5.4728616372       17.3066021304
  N         3.0114800600       17.5882398912       16.0322952983
  C         1.6935574523       17.3157560267       16.3000323371
  N        13.8213624727       17.5754412914        5.2005818756
  C        12.5037827006       17.3066041063        5.4728634458
  N        19.6856685918        5.2012516974       16.0219943833
  C        21.0026933354        5.4729315072       16.2946104796
  N         8.8493557768        5.2137235756        5.2137265546
  C        10.1676085619        5.4817177568        5.4817197824
  N         6.7224631541       19.7415218255       17.5869910954
  C         6.4504877271       21.0590651930       17.3176787862
  N         6.6951020264        8.9215315190        6.7701252318
  C         6.4257194539       10.2390228903        6.5002444946
  N         6.6982388876        3.0603398432        5.2132764500
  C         6.4302019071        1.7421527576        5.4830234663
  N         6.7176382357       13.8751668726       16.0284061935
  C         6.4454454370       12.5578251197       16.2982350509
  N        15.9754742487        3.0459124135       17.5741266571
  C        16.2474660022        1.7286443108       17.3034907045
  N        15.9751201587       13.8678287936        6.7579847275
  C        16.2426802017       12.5498691062        6.4872678424
  N        15.9716967011       19.7295437547        5.1980564649
  C        16.2385267627       21.0477367619        5.4689622486
  N        15.9763681777        8.9100203340       16.0213295340
  C        16.2482285761       10.2274502806       16.2909517502
  N        17.5275878994        6.7540422496       19.7323236259
  C        17.2544381403        6.4843981197       21.0494291953
  N        17.5306591872       17.5786978577        8.9087538251
  C        17.2630730050       17.3074569808       10.2265817327
  N         5.1426169052        6.7692119702        3.0577683112
  C         5.4145701909        6.4987179279        1.7403694069
  N         5.1635999434       17.5853066324       13.8773373747
  C         5.4305402553       17.3145455236       12.5592404795
  N        17.5311014095       16.0177898987        3.0482586803
  C        17.2627043997       16.2873012271        1.7301936625
  N        17.5307101679        5.2018831384       13.8656797695
  C        17.2580209451        5.4712757540       12.5483615113
  N         5.1671884699       16.0307658540       19.7401212654
  C         5.4350991734       16.3017102248       21.0579605587
  N         5.1374258329        5.2156284641        8.9225872426
  C         5.4089568521        5.4857510712       10.2400868788
  N        17.5394072043       19.7315515699       16.0173308977
  C        17.2672095732       21.0489672711       16.2868990581
  N        17.5203289025        8.9091236428        5.2000386892
  C        17.2529254137       10.2271328087        5.4706923029
  N         5.1582978363        3.0564034236       16.0333174702
  C         5.4306990121        1.7391326359       16.3029692628
  N         5.1481569117       13.8798581808        5.2117253211
  C         5.4134402939       12.5615745970        5.4843796562
  N        17.5175907989        3.0483836434        6.7556856771
  C        17.2493563278        1.7305846611        6.4849817603
  N        17.5390923325       13.8650677956       17.5757792712
  C        17.2672927121       12.5476583437       17.3062190376
  N         5.1519842821       19.7404715004        6.7688586210
  C         5.4193813967       21.0586915716        6.4983177261
  N         5.1544621771        8.9206077566       17.5852189601
  C         5.4262522884       10.2379547900       17.3147141828
  N        19.6711987946        6.7566036294        5.2008711690
  C        20.9888267455        6.4893991131        5.4737336537
  N         8.8650988068        6.7646636876       16.0245449479
  C        10.1827798627        6.4921741882       16.2928995806
  N         2.9981721271        6.7652822057       17.5863205856
  C         1.6811339422        6.4931076746       17.3146955489
  N        13.8104484179        6.7603084827        6.7603093717
  C        12.4920173251        6.4923602099        6.4923602400
  N         3.0024607663       16.0337120561        5.2068286810
  C         1.6840512768       16.3004707223        5.4761104106
  N        13.8312057431       16.0212970468       16.0213002446
  C        12.5137969836       16.2928475238       16.2928477598
  N        19.6936225429       16.0209321645       17.5774524783
  C        21.0114421836       16.2945832823       17.3103946956
  N         8.8651077832       16.0245448734        6.7646688177
  C        10.1827791670       16.2929007125        6.4921789994
  N         6.7130838484       17.5896792855        3.0588860567
  C         6.4459364225       17.3190291106        1.7405621937
  N         6.7029139950        6.7683936431       13.8770867105
  C         6.4288359160        6.5003303081       12.5598904610
  N         6.7095150770        5.2144058791       19.7431609886
  C         6.4357283068        5.4832027320       21.0605329007
  N         6.7115680600       16.0298963345        8.9187009397
  C         6.4422017225       16.2991487419       10.2365952485
  N        15.9866114455       17.5753480594       19.7296248514
  C        16.2529710805       17.3038422378       21.0475421652
  N        15.9658159023        6.7574184476        8.9115319635
  C        16.2380367637        6.4871642989       10.2287206353
  N        15.9600842482        5.2011974551        3.0469119295
  C        16.2328146296        5.4701188868        1.7293160917
  N        15.9842003858       16.0194245847       13.8665067423
  C        16.2521581119       16.2900846238       12.5486177757
 Zn        14.6922861484       14.7262118871       14.7262138900
 Br        13.3733314599       13.4139740144       13.4139748002
 Zn        14.6654168795        3.9081694535        3.9081698040
 Br        13.3478269045        2.5956211182        2.5956247250
 Zn         3.8616034971       14.7429177089        3.9119050552
 Br         2.5471687227       13.4276345600        2.5982406266
 Zn         3.8615997351        3.9119060865       14.7429158007
 Br         2.5471667111        2.5982398884       13.4276309390
 Zn         8.0018675711        8.0578767880       14.7318534469
 Br         9.3114547635        9.3734507704       13.4140624465
 Zn         8.0044349582       18.8812772753        3.9240395809
 Br         9.3186516057       20.1957344588        2.6086600259
 Zn        18.8135388078        8.0495705718        3.9053567181
 Br        20.1281882626        9.3624297470        2.5902695172
 Zn        18.8306906708       18.8705480020       14.7242061729
 Br        20.1473408323       20.1829497236       13.4098827294
 Zn         8.0018684372       14.7318571197        8.0578761472
 Br         9.3114554436       13.4140630523        9.3734498336
 Zn         8.0044334308        3.9240415708       18.8812764027
 Br         9.3186500509        2.6086636931       20.1957335656
 Zn        18.8306903605       14.7242036886       18.8705479076
 Br        20.1473390978       13.4098809140       20.1829483584
 Zn        18.8135384866        3.9053569993        8.0495733441
 Br        20.1281913391        2.5902703982        9.3624317988
 Zn        14.6723653396        8.0534917056        8.0534919827
 Br        13.3605217207        9.3689925645        9.3689956272
 Zn        14.6988151755       18.8713118660       18.8713118378
 Br        13.3829333460       20.1852701273       20.1852722195
 Zn         3.8571218439        8.0600326942       18.8773032034
 Br         2.5454418916        9.3772708625       20.1915433142
 Zn         3.8571253024       18.8773040577        8.0600325324
 Br         2.5454431556       20.1915452082        9.3772702883
 Zn        14.6818767790       14.7268909524        8.0521373080
 Br        13.3663696309       13.4146210055        9.3672244339
 Zn        14.6793619260        3.9037526271       18.8681957235
 Br        13.3649231844        2.5889257215       20.1815149540
 Zn         3.8755836748       14.7382393216       18.8793276935
 Br         2.5591865830       13.4255380516       20.1943589131
 Zn         3.8474761401        3.9184463150        8.0604290177
 Br         2.5345399704        2.6040256105        9.3763703594
 Zn         7.9906139066        8.0613015988        8.0613026999
 Br         9.2985280978        9.3789009809        9.3788987816
 Zn         8.0144886219       18.8777888267       18.8777878150
 Br         9.3327267853       20.1906078524       20.1906076625
 Zn        18.8213631547        8.0492838890       18.8745836725
 Br        20.1366847730        9.3621035661       20.1892201896
 Zn        18.8213651077       18.8745838999        8.0492886435
 Br        20.1366887694       20.1892232296        9.3621076516
 Zn        14.6818727738        8.0521345773       14.7268925189
 Br        13.3663677628        9.3672211574       13.4146199831
 Zn        14.6793676776       18.8681948628        3.9037549771
 Br        13.3649271757       20.1815142227        2.5889303838
 Zn         3.8474743876        8.0604300607        3.9184480284
 Br         2.5345405536        9.3763688006        2.6040254269
 Zn         3.8755829103       18.8793264349       14.7382423399
 Br         2.5591874204       20.1943611327       13.4255398198
 Zn         8.0086074119       14.7328472000       14.7328467121
 Br         9.3203977335       13.4171095958       13.4171074066
 Zn         7.9921301704        3.9215114129        3.9215110556
 Br         9.3043028766        2.6057181830        2.6057187511
 Zn        18.8249023365       14.7246910096        3.9083979463
 Br        20.1403951571       13.4105160177        2.5952639895
 Zn        18.8248996209        3.9083960030       14.7246909034
 Br        20.1403935317        2.5952635190       13.4105156154
 Zn         5.9367410391        5.9939132831       16.8137686859
 Zn        16.7661852018       16.7968635368       16.7968765318
 Zn        16.7353994091        5.9792261556        5.9792301092
 Zn         5.9367408385       16.8137678640        5.9939135152
 Zn         5.9143433821        5.9957791891        5.9957793132
 Zn        16.7573968480       16.7991972606        5.9773240048
 Zn         5.9464904853       16.8125247073       16.8125240333
 Zn        16.7573955285        5.9773175668       16.7991960109
  N         3.7472762249        5.9867639357       16.8111761249
  N        14.5545981132        5.9811303714        5.9811326876
  N        18.9472673319       16.7974349878       16.7974266362
  N         8.1183454979       16.8059226309        5.9902547193
  N        18.9242441590        5.9772357097        5.9772471136
  N         8.1183416305        5.9902585949       16.8059142677
  N         3.7472779679       16.8111721171        5.9867586487
  N        14.5793014398       16.7987661604       16.7987692105
  N        16.7376975895        3.7943404528        5.9789838917
  N        16.7625905868       14.6125262184       16.7972685957
  N        16.7645134940       18.9836693769       16.7969856291
  N        16.7418251324        8.1636020080        5.9785524165
  N         5.9325477586       18.9953228872        5.9922623508
  N         5.9325522607        8.1732779878       16.8079514505
  N         5.9343345666        3.8045444412       16.8118137501
  N         5.9281191060       14.6253415171        5.9887737252
  N         5.9343370615       16.8118116691        3.8045415319
  N         5.9281174913        5.9887734331       14.6253427279
  N        16.7645057950       16.7969843742       18.9836704263
  N        16.7418235422        5.9785557620        8.1636042754
  N         5.9325491042        5.9922599035       18.9953209485
  N         5.9325499391       16.8079545522        8.1732807899
  N        16.7377016705        5.9789821766        3.7943390754
  N        16.7625950093       16.7972694848       14.6125324197
  N         5.9194985663        3.8060535001        5.9913993388
  N         5.9420293566       14.6233010038       16.8072793712
  N        16.7513530919       18.9841503799        5.9756590644
  N        16.7525383695        8.1625863242       16.8004789172
  N         5.9458205375       18.9941611352       16.8084726608
  N         5.9157139359        8.1754323659        5.9928662971
  N        16.7525043383        3.7937320350       16.7962792501
  N        16.7542018873       14.6135669032        5.9803180673
  N         3.7582508352       16.8114492665       16.8114587229
  N        14.5686907720       16.7971772226        5.9777525122
  N        18.9372541435       16.7996033632        5.9782189547
  N         8.1283088896       16.8056096665       16.8056088012
  N        18.9372494457        5.9782088115       16.7995986316
  N         8.1042246185        5.9923854332        5.9923870709
  N         3.7340132111        5.9900609880        5.9900549903
  N        14.5686904404        5.9777410764       16.7971872121
  N        16.7513424235        5.9756475505       18.9841472837
  N        16.7525405542       16.8004782151        8.1625933493
  N        16.7525152767       16.7962736290        3.7937311012
  N        16.7541971529        5.9803138526       14.6135697847
  N         5.9194929716        5.9914059580        3.8060549058
  N         5.9420323347       16.8072752484       14.6233013276
  N         5.9458239601       16.8084753371       18.9941604574
  N         5.9157111422        5.9928642272        8.1754326559
  C        11.3513922198       15.7447707041       15.7447697466
  H        11.3494389890       14.9692637430       14.9692636807
  C        11.3259744857        4.9294805924        4.9294832068
  H        11.3221898875        4.1539599033        4.1539639378
  C         0.5254853878       15.7481079517        4.9245734110
  H         0.5289909715       14.9729585852        4.1487051205
  C         0.5254815929        4.9245750236       15.7481045656
  H         0.5289874429        4.1487052108       14.9729529211
  C        11.3439203960        7.0391919613       15.7414593544
  H        11.3445471676        7.8142080259       14.9654743333
  C        11.3427609053       17.8585140229        4.9262209212
  H        11.3421025975       18.6348569921        4.1515095386
  C         0.5093153897        7.0418081208        4.9266219626
  H         0.5095178984        7.8176359713        4.1514209611
  C         0.5325600154       17.8627498345       15.7480119179
  H         0.5326707199       18.6384125851       14.9726540657
  C        11.3439232218       15.7414613891        7.0391955894
  H        11.3445487058       14.9654794397        7.8142091214
  C        11.3427594514        4.9262167214       17.8585129215
  H        11.3421004988        4.1515083214       18.6348533707
  C         0.5325627066       15.7480090046       17.8627506785
  H         0.5326734836       14.9726511579       18.6384120473
  C         0.5093145115        4.9266178537        7.0418051392
  H         0.5095171739        4.1514125414        7.8176323975
  C        11.3334939714        7.0445166824        7.0445154307
  H        11.3371091741        7.8200254089        7.8200227647
  C        11.3560622349       17.8594816425       17.8594781034
  H        11.3580106641       18.6349977911       18.6349936721
  C         0.5186118939        7.0409991621       17.8618457690
  H         0.5153017428        7.8169699098       18.6368792845
  C         0.5186152877       17.8618469099        7.0409996463
  H         0.5153058098       18.6368804162        7.8169734183
  C        15.7008731184       11.3887201989       15.7403272440
  H        14.9258055670       11.3898345496       14.9643468793
  C        15.6856100691        0.5675094964        4.9202508667
  H        14.9095813302        0.5657526112        4.1452629486
  C         4.8607583413       11.4016443810        4.9360989000
  H         4.0851485793       11.4027217821        4.1607209180
  C         4.8832945589        0.5778428908       15.7524698547
  H         4.1078131751        0.5764984319       14.9768934114
  C        15.6909230936       11.3903261029        7.0371976883
  H        14.9158687164       11.3918974004        7.8131514940
  C        15.7007672370        0.5669388184       17.8537104762
  H        14.9258714908        0.5649248642       18.6298526539
  C         4.8787447450       11.3996372314       17.8644152576
  H         4.1037041039       11.4012757136       18.6403920759
  C         4.8671982555        0.5783166170        7.0479409705
  H         4.0918720932        0.5762956585        7.8236075229
  C         6.9932487905       11.3962797208       15.7486708773
  H         7.7686357068       11.3948320847       14.9730200915
  C         6.9824813318        0.5825414060        4.9333404130
  H         7.7580363133        0.5845318077        4.1578353410
  C        17.8048631974       11.3867087038        4.9209135272
  H        18.5799864865       11.3851168952        4.1450081494
  C        17.8141377642        0.5706964394       15.7367785564
  H        18.5892602477        0.5725077352       14.9608441291
  C         6.9763265566       11.3986935604        7.0505578575
  H         7.7508663465       11.3972613729        7.8270151073
  C         6.9977605727        0.5805925826       17.8681985742
  H         7.7730980520        0.5817484142       18.6438685089
  C        17.8148211621       11.3864184196       17.8567252808
  H        18.5902555551       11.3853759729       18.6323334239
  C        17.8018664025        0.5710413825        7.0340754729
  H        18.5778901472        0.5727075381        7.8090740668
  C        15.7008623190       15.7403391519       11.3887231019
  H        14.9257943151       14.9643578452       11.3898377511
  C        15.6856090088        4.9202457138        0.5675103178
  H        14.9095815615        4.1452607617        0.5657528048
  C         4.8832940466       15.7524711648        0.5778444229
  H         4.1078138703       14.9768981950        0.5764999077
  C         4.8607584957        4.9360987071       11.4016411101
  H         4.0851462266        4.1607180603       11.4027193043
  C         6.9932490722       15.7486711366       11.3962799702
  H         7.7686352837       14.9730222286       11.3948335403
  C         6.9824847540        4.9333461822        0.5825413274
  H         7.7580435999        4.1578434375        0.5845307490
  C        17.8141384128       15.7367753844        0.5707006144
  H        18.5892579668       14.9608429672        0.5725091084
  C        17.8048705281        4.9209224877       11.3867102650
  H        18.5799963961        4.1450167734       11.3851198779
  C        15.6909260929        7.0372026142       11.3903267485
  H        14.9158702783        7.8131537199       11.3918981730
  C        15.7007681464       17.8537076226        0.5669400181
  H        14.9258708408       18.6298506816        0.5649252609
  C         4.8671924924        7.0479390818        0.5783186088
  H         4.0918652798        7.8236002954        0.5762979773
  C         4.8787436640       17.8644135803       11.3996358509
  H         4.1037003931       18.6403915391       11.4012744820
  C         6.9763270305        7.0505572625       11.3986912232
  H         7.7508656297        7.8270125963       11.3972608589
  C         6.9977624832       17.8681969578        0.5805925233
  H         7.7731029171       18.6438680739        0.5817465890
  C        17.8018681496        7.0340674518        0.5710430419
  H        18.5778952375        7.8090669131        0.5727059865
  C        17.8148120342       17.8567350077       11.3864241515
  H        18.5902482875       18.6323411800       11.3853834825
 Kr         5.0240224397       10.1322204283       10.1322223960
