     409
 i =     176, E =    -5136.7138881834
  N         2.9028831573        5.2004374677       15.9929716308
  C         1.5860278435        5.4774286066       16.2608392847
  N        13.7000462271        5.1447243958        5.1447766789
  C        12.3794524524        5.4111178911        5.4112132672
  N        19.6248688043       17.5858613427       16.0295985707
  C        20.9422539833       17.3085753752       16.2928297478
  N         8.7689321117       17.5569291970        5.1826295589
  C        10.0873904559       17.2835681797        5.4474838685
  N        19.5618825543        5.2088408316        6.7645334037
  C        20.8795633816        5.4780816833        6.4938084890
  N         8.7687691706        5.1825992393       17.5569332687
  C        10.0872333160        5.4474104234       17.2835870762
  N         2.9088077022       17.5441668228        6.7606728241
  C         1.5900476015       17.2753023824        6.4942875398
  N        13.7608879503       17.6098174720       17.6098772030
  C        12.4427961491       17.3377269875       17.3377753283
  N        15.8916574062        3.0229813569        5.1723636323
  C        16.1679680583        1.7079970818        5.4469052469
  N        15.9111811219       13.8894767965       16.0355550760
  C        16.1786857646       12.5698596012       16.2974035464
  N        15.9317046727       19.7504488551       17.5913408165
  C        16.1891670358       21.0675469327       17.3066060491
  N        15.8207635898        8.8840115926        6.7394820341
  C        16.1014092928       10.2037020740        6.4903558374
  N         6.6008444690       19.7035204653        5.1915856763
  C         6.3203605761       21.0196080354        5.4563525084
  N         6.6495661460        8.8977700529       16.0036187686
  C         6.3891993051       10.2175647396       16.2772514621
  N         6.6072163983        3.0408060916       17.5602353844
  C         6.3408912044        1.7225006632       17.2925144787
  N         6.6044983074       13.8351256490        6.7418202831
  C         6.3350623600       12.5180012102        6.4668899943
  N         5.0554062056       16.0008316638        3.0341986747
  C         5.3288620298       16.2734859611        1.7174391789
  N         5.0509351099        5.1838969367       13.8407125172
  C         5.3198649158        5.4505121717       12.5220367257
  N        17.4764051616       16.0238319475       19.7484819154
  C        17.1976304875       16.2833905012       21.0669139067
  N        17.3875558225        5.1951235682        8.8939335421
  C        17.1231365987        5.4811768262       10.2092623586
  N         5.0551908357        6.7570966723       19.6982059915
  C         5.3116524521        6.4790253936       21.0169473680
  N         5.0786672959       17.5432242606        8.9045437059
  C         5.3629784257       17.2821908235       10.2206827415
  N        17.4337924761        6.7417308262        3.0351374944
  C        17.1750862823        6.4708680479        1.7152188487
  N        17.4717942358       17.5858261116       13.8781323964
  C        17.1972495260       17.3099991225       12.5623917723
  N         5.0177201395        3.0168778876        6.7308515337
  C         5.2927388666        1.6986175252        6.4664315770
  N         5.1032357017       13.8582937342       17.5600152065
  C         5.3746572766       12.5412057431       17.2901943767
  N        17.4506160567       19.7171893071        6.7564118993
  C        17.1831194719       21.0337962422        6.4782146191
  N        17.4419127656        8.9218605862       17.5740412422
  C        17.1816316812       10.2410884882       17.3036040991
  N         5.0795300349       19.7165563305       16.0068597275
  C         5.3404164639       21.0360440940       16.2770766970
  N         5.0463700249        8.8842241910        5.1683308792
  C         5.3191539005       10.2005697717        5.4420927884
  N        17.4332362065        3.0679810756       15.9804310272
  C        17.1768705803        1.7491434278       16.2608050301
  N        17.4176285891       13.8464990335        5.2492977915
  C        17.1383060130       12.5291612886        5.5093090028
  N         2.9400453749       16.0018953632       17.5565305578
  C         1.6226032863       16.2790722451       17.2945155155
  N        13.7251804076       16.0029288336        6.7436447774
  C        12.4082397143       16.2636216530        6.4609047925
  N        19.5856886655       15.9887845953        5.2249734872
  C        20.9046216783       16.2592033854        5.4885650191
  N         8.8133030379       16.0332817768       16.0332754483
  C        10.1277480758       16.3113611537       16.3113798475
  N        19.5918151888        6.7742548784       17.5511657509
  C        20.9083680821        6.5011836427       17.2780325952
  N         8.7418602652        6.7028357687        6.7029618599
  C        10.0573703296        6.4287409747        6.4288980482
  N         2.8780453577        6.7493601835        5.1935812053
  C         1.5605294422        6.4863707888        5.4707062582
  N        13.7250563529        6.7435030097       16.0030659829
  C        12.4081105625        6.4607592757       16.2637026439
  N        15.9042165932        5.1920161006       19.7099232068
  C        16.1741431279        5.4559426509       21.0282337388
  N        15.8809231977       16.0223881119        8.9316066231
  C        16.1629597608       16.2905395499       10.2480323085
  N        15.8885526785       17.5461314309        3.0644223336
  C        16.1685043161       17.2833604280        1.7479535461
  N        15.8582850960        6.8026629418       13.8445151928
  C        16.1191402071        6.5221739458       12.5265827034
  N         6.5627805038        5.1650048535        3.0158912701
  C         6.3010559779        5.4437173460        1.6991299992
  N         6.6752462697       16.0202715815       13.8590644934
  C         6.4012238695       16.2854497092       12.5404579060
  N         6.6251587708       17.5722675112       19.7262343425
  C         6.3502630439       17.2986136538       21.0420545218
  N         6.6056216912        6.7202738519        8.8766547702
  C         6.3363627725        6.4561513523       10.1960259355
  N        19.5919835562       17.5510956989        6.7742464808
  C        20.9085404539       17.2780071347        6.5011447840
  N         8.7975119955       17.5900095981       17.5899674444
  C        10.1188374892       17.3271757620       17.3271736775
  N         2.8780677544        5.1936154443        6.7493103342
  C         1.5605436194        5.4707228849        6.4863574462
  N        13.7284411153        5.2069859016       17.5774604527
  C        12.4096853635        5.4602497490       17.2943152382
  N         2.9400266743       17.5565677788       16.0018496460
  C         1.6225905195       17.2945404805       16.2790465278
  N        13.7286034903       17.5773029570        5.2070986943
  C        12.4098416029       17.2942137815        5.4603733132
  N        19.5855081724        5.2250153390       15.9888177410
  C        20.9044420576        5.4886229906       16.2592096736
  N         8.7349630332        5.1469467375        5.1469338744
  C        10.0550343834        5.4131277397        5.4131977748
  N         6.6251375379       19.7262999611       17.5722065043
  C         6.3501916251       21.0421142432       17.2985670733
  N         6.6057148048        8.8766510867        6.7202548808
  C         6.3364938437       10.1960293667        6.4561309619
  N         6.5628079507        3.0159436245        5.1648709534
  C         6.3011201567        1.6991768720        5.4436055078
  N         6.6752261298       13.8590826182       16.0202234795
  C         6.4011814716       12.5404790974       16.2854008196
  N        15.8884140487        3.0643769016       17.5462049414
  C        16.1683824898        1.7479145994       17.2834174659
  N        15.8585260882       13.8444231708        6.8025632118
  C        16.1193987884       12.5265020395        6.5220639728
  N        15.9043184682       19.7098243897        5.1921058215
  C        16.1742154934       21.0281374886        5.4560652702
  N        15.8808071124        8.9315777059       16.0225624908
  C        16.1628794705       10.2480030014       16.2906597303
  N        17.4505098653        6.7563144104       19.7172810994
  C        17.1830494659        6.4780857159       21.0338841625
  N        17.4420337924       17.5738734946        8.9218830607
  C        17.1817141884       17.3034834697       10.2411137890
  N         5.0176917528        6.7309806709        3.0168491599
  C         5.2926767583        6.4665441374        1.6985834876
  N         5.1032580636       17.5600689985       13.8582504530
  C         5.3747049735       17.2902498090       12.5411670917
  N        17.4333995775       15.9803892971        3.0679922210
  C        17.1770073157       16.2607646466        1.7491618133
  N        17.4173739907        5.2493614519       13.8465576054
  C        17.1380318897        5.5093969954       12.5292261313
  N         5.0795636805       16.0069091609       19.7165224618
  C         5.3404949729       16.2771160215       21.0360051903
  N         5.0463122268        5.1683126288        8.8841883615
  C         5.3190411184        5.4420944862       10.2005428805
  N        17.4763613441       19.7484644235       16.0238945818
  C        17.1975520389       21.0668923292       16.2834442912
  N        17.3877530734        8.8938733520        5.1949657354
  C        17.1233802594       10.2092014197        5.4810443704
  N         5.0551803231        3.0342355027       16.0008276716
  C         5.3286847256        1.7174790879       16.2734650688
  N         5.0511312270       13.8407318612        5.1838948969
  C         5.3200395781       12.5220548682        5.4505029726
  N        17.4337464923        3.0350770124        6.7419359321
  C        17.1750885318        1.7151456173        6.4710584058
  N        17.4717869612       13.8781025871       17.5858349848
  C        17.1972198113       12.5623625399       17.3100404145
  N         5.0553282638       19.6982444277        6.7570587542
  C         5.3117675927       21.0169837635        6.4789604976
  N         5.0785590438        8.9045854357       17.5431886424
  C         5.3628904298       10.2207196158       17.2821470473
  N        19.5618764973        6.7644348920        5.2088613842
  C        20.8795531263        6.4937389400        5.4781114121
  N         8.7703391731        6.7091942599       15.9725059419
  C        10.0874269662        6.4437788161       16.2491281305
  N         2.9086422734        6.7607462091       17.5441312498
  C         1.5898761247        6.4943648455       17.2752818574
  N        13.6918676411        6.7006509514        6.7007500243
  C        12.3766695149        6.4268173534        6.4269625992
  N         2.9030737701       15.9930156147        5.2003486266
  C         1.5862124281       16.2608691350        5.4773408159
  N        13.7663972978       16.0548439025       16.0549113378
  C        12.4482020247       16.3221306977       16.3221885570
  N        19.6248873327       16.0295539546       17.5858778012
  C        20.9422664839       16.2928100365       17.3085815939
  N         8.7704530457       15.9725402834        6.7092677832
  C        10.0875500427       16.2491354306        6.4438814360
  N         6.6074107440       17.5602589562        3.0407482457
  C         6.3410557015       17.2925474582        1.7224435503
  N         6.6043163844        6.7418200813       13.8351268027
  C         6.3348873141        6.4669014632       12.5179988365
  N         6.6007023975        5.1916178960       19.7034839528
  C         6.3202406234        5.4564131354       21.0195677217
  N         6.6496487270       16.0036298797        8.8977603580
  C         6.3892726642       16.2772814671       10.2175472866
  N        15.9317350845       17.5912642678       19.7504943058
  C        16.1892356835       17.3065421815       21.0675890184
  N        15.8206013167        6.7396788319        8.8840653014
  C        16.1011899404        6.4905120505       10.2037629714
  N        15.8916823940        5.1721672103        3.0230795188
  C        16.1679553518        5.4467236113        1.7080894245
  N        15.9111840025       16.0355499646       13.8895141364
  C        16.1787117013       16.2973660092       12.5698945824
 Zn        14.6116059539       14.7613089913       14.7613214881
 Br        13.2496793436       13.4707365157       13.4705832394
 Zn        14.6002260933        3.8640944957        3.8642887213
 Br        13.3103841764        2.5376235375        2.5377594665
 Zn         3.7602989362       14.7108293555        3.8951328544
 Br         2.4394151738       13.4054849946        2.5771511626
 Zn         3.7599903240        3.8951641596       14.7108222870
 Br         2.4391756920        2.5771788716       13.4054288716
 Zn         7.9110614544        8.0177225627       14.6950394324
 Br         9.2106064023        9.3331746161       13.3653101828
 Zn         7.9001039807       18.8526265264        3.8996814199
 Br         9.2149923595       20.1717603689        2.5903845934
 Zn        18.7025275968        8.0507281777        3.9079983529
 Br        20.0181868636        9.3713541625        2.6025876372
 Zn        18.7677131334       18.8799232044       14.7324673224
 Br        20.0799522975       20.1947094312       13.4164154175
 Zn         7.9111789462       14.6950556760        8.0177622852
 Br         9.2107496077       13.3653461194        9.3332146545
 Zn         7.8999656608        3.8996784492       18.8526134180
 Br         9.2147901254        2.5903496853       20.1717714305
 Zn        18.7677332636       14.7323943124       18.8799220553
 Br        20.0799587019       13.4163081161       20.1946874073
 Zn        18.7024009226        3.9081036536        8.0508781384
 Br        20.0179884102        2.6027526917        9.3716419320
 Zn        14.5153136910        8.0049060188        8.0047467930
 Br        13.1457610933        9.2921413632        9.2909003603
 Zn        14.6448909854       18.8928301361       18.8929101534
 Br        13.3359816042       20.2110038542       20.2111131265
 Zn         3.7765468435        8.0564769014       18.8297447427
 Br         2.4631973690        9.3736869686       20.1435353651
 Zn         3.7766620821       18.8297767627        8.0564327277
 Br         2.4633117180       20.1435880491        9.3736164280
 Zn        14.5681272895       14.7387786175        8.0746921685
 Br        13.1837217692       13.5334832327        9.4223382144
 Zn        14.6023503343        3.9075594196       18.8530316390
 Br        13.2904798684        2.5881418177       20.1648230414
 Zn         3.7974896680       14.7109470832       18.8453287919
 Br         2.4833889156       13.3933825702       20.1575712969
 Zn         3.7371166735        3.8886260350        8.0288459122
 Br         2.4244074083        2.5786406217        9.3503869613
 Zn         7.8982940204        8.0031933258        8.0032336914
 Br         9.2080793600        9.3195517469        9.3196592831
 Zn         7.9119554094       18.8763091902       18.8762483699
 Br         9.2152206081       20.1967532702       20.1966833463
 Zn        18.7351165496        8.0564686183       18.8618468856
 Br        20.0594322822        9.3571988874       20.1804326278
 Zn        18.7352631859       18.8616730860        8.0565063245
 Br        20.0595232234       20.1802938533        9.3572724966
 Zn        14.5679009956        8.0747129257       14.7391289221
 Br        13.1832119500        9.4224959198       13.5342860931
 Zn        14.6024440173       18.8528454402        3.9076502023
 Br        13.2906069446       20.1646917225        2.5882469397
 Zn         3.7371091545        8.0289879359        3.8886489462
 Br         2.4244338535        9.3505461979        2.5786597106
 Zn         3.7974713281       18.8453630688       14.7109007388
 Br         2.4833942456       20.1575878918       13.3932932872
 Zn         7.9648127438       14.7311505144       14.7311278567
 Br         9.2734135343       13.4141081006       13.4141043459
 Zn         7.8516355851        3.8616569260        3.8615038817
 Br         9.1629822397        2.5453838761        2.5452736146
 Zn        18.7155977453       14.6912708858        3.9470142407
 Br        20.0193424227       13.3613408598        2.6367056939
 Zn        18.7154262624        3.9470589637       14.6913186804
 Br        20.0191111788        2.6367551415       13.3613390444
 Zn         5.8390196433        5.9641488565       16.7699695774
 Zn        16.7031551557       16.8215429926       16.8215684310
 Zn        16.6239292407        5.9541479275        5.9541606363
 Zn         5.8391358755       16.7699934877        5.9641317398
 Zn         5.8032071261        5.9479553400        5.9479319380
 Zn        16.6581076082       16.7791793170        6.0018454407
 Zn         5.8797549917       16.7857890408       16.7857316528
 Zn        16.6579910847        6.0018175607       16.7792652245
  N         3.6524663066        5.9777791759       16.7689641396
  N        14.4424917908        5.9252577647        5.9253050162
  N        18.8786642869       16.8113571670       16.8113966358
  N         8.0229845543       16.7645519996        5.9469373833
  N        18.8148473399        5.9864444922        5.9865092284
  N         8.0228450561        5.9469044159       16.7645291255
  N         3.6526408904       16.7690112150        5.9777013752
  N        14.5107617845       16.8331130905       16.8331795729
  N        16.6577302855        3.7755476794        5.9563249220
  N        16.6927500550       14.6309298596       16.8145278694
  N        16.7096294994       19.0030992614       16.8142562736
  N        16.6002655099        8.1421222340        5.9578672476
  N         5.8344281748       18.9540876849        5.9777415532
  N         5.8570169550        8.1543294751       16.7696906085
  N         5.8295923698        3.7841059653       16.7792184570
  N         5.8285726590       14.5845941470        5.9648108999
  N         5.8298189310       16.7792240331        3.7840612218
  N         5.8283790622        5.9648078236       14.5845823957
  N        16.7096441802       16.8141830839       19.0031307479
  N        16.6001171898        5.9580625387        8.1421788990
  N         5.8342761442        5.9777640030       18.9540503265
  N         5.8571197756       16.7697086828        8.1543027772
  N        16.6577898149        5.9561219558        3.7756232810
  N        16.6927438864       16.8145369991       14.6309624089
  N         5.7873952515        3.7632254716        5.9441914168
  N         5.8895464867       14.6051710233       16.7911584628
  N        16.6762776570       18.9664349501        5.9784719374
  N        16.6560365350        8.1805091273       16.7994177438
  N         5.8562493090       18.9745331388       16.7902773226
  N         5.8247079434        8.1336829853        5.9420579226
  N        16.6547908312        3.8132214437       16.7594670981
  N        16.6428257974       14.5922337280        6.0303166300
  N         3.6874223893       16.7753133193       16.7752646209
  N        14.4734679933       16.7961632725        5.9836891301
  N        18.8421033649       16.7705764526        6.0020918933
  N         8.0592915752       16.8076680549       16.8076265942
  N        18.8419303568        6.0021036563       16.7706470576
  N         7.9916300012        5.9268907114        5.9269129127
  N         3.6245640817        5.9674081757        5.9673571877
  N        14.4733259179        5.9835762116       16.7963355204
  N        16.6761560519        5.9783940566       18.9665259654
  N        16.6561755917       16.7992233381        8.1805370809
  N        16.6549507233       16.7594039918        3.8132505661
  N        16.6425906718        6.0303903847       14.5923040348
  N         5.7873885146        5.9443288407        3.7631865213
  N         5.8895555234       16.7912074556       14.6051387765
  N         5.8562538154       16.7903404709       18.9744826852
  N         5.8246594382        5.9420518412        8.1336674248
  C        11.2927769625       15.7674240267       15.7674741182
  H        11.3018358066       14.9919600476       14.9920181567
  C        11.2164355712        4.8624219466        4.8624761282
  H        11.2141829600        4.0869396163        4.0869321011
  C         0.4231813107       15.7094843966        4.9340827459
  H         0.4202930413       14.9329636356        4.1595603054
  C         0.4229975944        4.9341649508       15.7094606598
  H         0.4201090376        4.1596514497       14.9329301043
  C        11.2471435662        6.9893675713       15.6948117182
  H        11.2475841590        7.7521451963       14.9068205742
  C        11.2490658746       17.8469114279        4.9127088981
  H        11.2496023573       18.6361400039        4.1512029953
  C         0.4001006972        7.0406504668        4.9254314423
  H         0.4005848331        7.8158604346        4.1495972973
  C         0.4625101362       17.8515615691       15.7360705980
  H         0.4628791265       18.6270324982       14.9604882390
  C        11.2472417579       15.6947959755        6.9895126746
  H        11.2476324785       14.9068162473        7.7523022990
  C        11.2488799541        4.9126204787       17.8469809859
  H        11.2493687818        4.1511374833       18.6362309780
  C         0.4625408145       15.7360703047       17.8515487701
  H         0.4629423097       14.9604835781       18.6270153125
  C         0.4001411006        4.9254371077        7.0406914288
  H         0.4006785159        4.1496214460        7.8159194901
  C        11.2176480166        6.9770792522        6.9772873282
  H        11.2203760245        7.7525273166        7.7527720123
  C        11.2760128438       17.8820527078       17.8820698155
  H        11.2685698543       18.6575562782       18.6575608232
  C         0.4313958650        7.0467528447       17.8268813280
  H         0.4345635484        7.8208330374       18.6037853630
  C         0.4315643754       17.8268754020        7.0466989608
  H         0.4347311426       18.6037703117        7.8207887193
  C        15.6208545848       11.4142091929       15.7449584901
  H        14.8405232345       11.4216902357       14.9745060333
  C        15.6266951192        0.5443982654        4.8962577237
  H        14.8570808568        0.5389878819        4.1148514573
  C         4.7698127222       11.3635389970        4.8969150637
  H         3.9938280655       11.3665086807        4.1219414678
  C         4.7871453841        0.5532637922       15.7231346211
  H         4.0152669286        0.5480588993       14.9440618655
  C        15.5581645997       11.3620448425        7.0535196062
  H        14.7768028575       11.3546146865        7.8228688244
  C        15.6329705646        0.5883108221       17.8486360113
  H        14.8630403018        0.5897987739       18.6298274467
  C         4.8139993048       11.3818743029       17.8306231154
  H         4.0299206053       11.3832688730       18.5975324824
  C         4.7562601889        0.5364647858        7.0264367386
  H         3.9867734299        0.5341092913        7.8079103302
  C         6.9519047361       11.3780183397       15.7389098406
  H         7.7349522455       11.3768135518       14.9710437545
  C         6.8560454125        0.5407847902        4.8956222348
  H         7.6258992670        0.5430024662        4.1144657587
  C        17.6831574786       11.3721535490        4.9484904182
  H        18.4616341986       11.3776545135        4.1758867083
  C        17.7327771435        0.5876040973       15.7184569380
  H        18.5030218885        0.5867064436       14.9378211162
  C         6.8857742870       11.3548223812        7.0108417000
  H         7.6616284042       11.3519608776        7.7860680831
  C         6.8924253263        0.5658513989       17.8483115236
  H         7.6643116786        0.5714900671       18.6274776482
  C        17.7414200907       11.3967035366       17.8543133470
  H        18.5181966430       11.3891981474       18.6286460210
  C        17.7260041694        0.5580257216        7.0275403095
  H        18.4959279443        0.5631524455        7.8085883691
  C        15.6209052572       15.7448851151       11.4142466769
  H        14.8405782698       14.9744280533       11.4217437179
  C        15.6266462896        4.8961081995        0.5444922874
  H        14.8570229810        4.1147112232        0.5390804288
  C         4.7872765181       15.7231610892        0.5532419521
  H         4.0153983719       14.9440876526        0.5480674001
  C         4.7696730471        4.8969204950       11.3635037086
  H         3.9936964532        4.1219396574       11.3664544725
  C         6.9519601531       15.7389450335       11.3780108036
  H         7.7350014084       14.9710723431       11.3768231410
  C         6.8559509103        4.8957045126        0.5407406488
  H         7.6257989553        4.1145421616        0.5429548918
  C        17.7328946602       15.7184170798        0.5876144134
  H        18.5031475222       14.9377888081        0.5867044225
  C        17.6828758582        4.9485863252       11.3722119655
  H        18.4613350147        4.1759648229       11.3776977697
  C        15.5579317815        7.0536574438       11.3621145417
  H        14.7765967446        7.8230325026       11.3546954759
  C        15.6330608883       17.8485729511        0.5883621548
  H        14.8631231767       18.6297563163        0.5898678151
  C         4.7561741001        7.0265287471        0.5364305605
  H         3.9866936463        7.8080085204        0.5340784436
  C         4.8140744050       17.8306814137       11.3818237904
  H         4.0300043649       18.5975994722       11.3831980076
  C         6.8856103561        7.0108666183       11.3548317139
  H         7.6614575418        7.7861005130       11.3519859600
  C         6.8925400538       17.8483548948        0.5657755776
  H         7.6644222983       18.6275253770        0.5713845663
  C        17.7259757069        7.0273781860        0.5581038710
  H        18.4959083633        7.8084183153        0.5632260796
  C        17.7414763844       17.8542302977       11.3967256626
  H        18.5182585777       18.6285572519       11.3892111836
 Kr        15.7733367043       11.3326418208       11.3338675894
