     409
 i =     176, E =    -5136.7110594926
  N         3.0195228427        5.2033353096       16.0257735420
  C         1.7011472502        5.4732007909       16.2944485216
  N        13.8319620576        5.2010735286        5.2010763048
  C        12.5144035507        5.4725205368        5.4725227605
  N        19.7046235538       17.5763457415       16.0198543539
  C        21.0225727304       17.3075929179       16.2918001203
  N         8.8802832207       17.5803137829        5.2051997956
  C        10.1982220582       17.3081045694        5.4735698364
  N        19.6952236216        5.1998327187        6.7562466114
  C        21.0130488511        5.4722475122        6.4879991410
  N         8.8802823003        5.2051957678       17.5803129553
  C        10.1982299241        5.4735694193       17.3081016019
  N         3.0171013337       17.5808846364        6.7609544320
  C         1.6996207048       17.3096284761        6.4895302474
  N        13.8438546349       17.5763192901       17.5763177899
  C        12.5257520979       17.3067214490       17.3067195737
  N        15.9853509997        3.0455398941        5.1991671263
  C        16.2558111668        1.7279982356        5.4693709769
  N        15.9967938086       13.8656554139       16.0183652233
  C        16.2658838189       12.5480330980       16.2887736931
  N        15.9975047243       19.7292129895       17.5760030370
  C        16.2660336992       21.0468925303       17.3051682767
  N        15.9893580512        8.9098045563        6.7561497309
  C        16.2593368695       10.2273394410        6.4856933415
  N         6.7256247837       19.7365720263        5.2059382623
  C         6.4540707297       21.0539515481        5.4754867906
  N         6.7272261697        8.9152603618       16.0246206587
  C         6.4575643308       10.2329062333       16.2943396431
  N         6.7271013015        3.0521918726       17.5830670798
  C         6.4593274321        1.7342732202       17.3120946127
  N         6.7210171541       13.8712968377        6.7651582357
  C         6.4484814791       12.5538737311        6.4970264339
  N         5.1744139565       16.0251174959        3.0511630028
  C         5.4452329572       16.2950281802        1.7337187599
  N         5.1685879550        5.2069738094       13.8723130632
  C         5.4346820256        5.4796873842       12.5545017210
  N        17.5506216556       16.0181484407       19.7297990376
  C        17.2802580042       16.2882036921       21.0473257324
  N        17.5421617541        5.1980347197        8.9092237033
  C        17.2733835887        5.4685527754       10.2268784462
  N         5.1714727831        6.7631180583       19.7355085979
  C         5.4394596638        6.4921643535       21.0533454143
  N         5.1726918557       17.5814363731        8.9159492468
  C         5.4427613230       17.3108407061       10.2334185257
  N        17.5403983226        6.7554684810        3.0461562030
  C        17.2709817525        6.4854613355        1.7285167982
  N        17.5508319738       17.5754551905       13.8652093473
  C        17.2804992022       17.3053818451       12.5476471653
  N         5.1674503110        3.0518770512        6.7628984647
  C         5.4372432686        1.7342966490        6.4921522484
  N         5.1757767301       13.8718442867       17.5815316765
  C         5.4442294055       12.5541672310       17.3108316406
  N        17.5446954155       19.7304594681        6.7552212726
  C        17.2733395304       21.0477610133        6.4853898953
  N        17.5467446934        8.9091545588       17.5771136970
  C        17.2784648714       10.2268520679       17.3061434827
  N         5.1780482769       19.7351659199       16.0245119493
  C         5.4472469715       21.0528372256       16.2947601516
  N         5.1642000933        8.9160703716        5.2080696384
  C         5.4324528329       10.2336429825        5.4802572009
  N        17.5471937419        3.0459839374       16.0176836837
  C        17.2784051820        1.7281684209       16.2879715971
  N        17.5464131202       13.8651699168        5.1995383300
  C        17.2755073640       12.5476639604        5.4692272391
  N         3.0227297009       16.0258242044       17.5821615876
  C         1.7048399894       16.2946509978       17.3103995301
  N        13.8386900705       16.0191478237        6.7561822824
  C        12.5206748272       16.2900905959        6.4866896483
  N        19.7013706874       16.0199976516        5.2001382496
  C        21.0188743946       16.2915410274        5.4714004515
  N         8.8838195210       16.0233015085       16.0233024301
  C        10.2020859536       16.2927139042       16.2927132110
  N        19.6990886249        6.7561613229       17.5769607203
  C        21.0174202036        6.4870773382       17.3074073194
  N         8.8760767410        6.7616628299        6.7616616152
  C        10.1937837497        6.4904662608        6.4904656387
  N         3.0129796322        6.7619347787        5.2056680480
  C         1.6950771686        6.4907731080        5.4750228763
  N        13.8386897553        6.7561831708       16.0191493499
  C        12.5206614969        6.4866849477       16.2900952017
  N        15.9910135910        5.1979363316       19.7291116246
  C        16.2586652841        5.4688653991       21.0470421440
  N        15.9936110675       16.0193389833        8.9097677836
  C        16.2641682248       16.2892620935       10.2272850335
  N        15.9932432959       17.5748726810        3.0450341139
  C        16.2638622156       17.3046537873        1.7276672829
  N        15.9927533143        6.7569806441       13.8658124342
  C        16.2611589879        6.4861016607       12.5481325459
  N         6.7206780827        5.2053205771        3.0526886267
  C         6.4515303479        5.4752694759        1.7348913833
  N         6.7290140779       16.0241635390       13.8713041757
  C         6.4586014260       16.2940513281       12.5537334235
  N         6.7320601403       17.5818801431       19.7358609531
  C         6.4617909821       17.3115199207       21.0533408422
  N         6.7180946885        6.7655521665        8.9157993757
  C         6.4467413269        6.4972739482       10.2332715213
  N        19.6990784896       17.5769539793        6.7561602369
  C        21.0174258607       17.3074072496        6.4870796569
  N         8.8858907200       17.5797173442       17.5797150951
  C        10.2035325837       17.3084976988       17.3084950921
  N         3.0129840582        5.2056677971        6.7619287814
  C         1.6950763683        5.4750218582        6.4907703906
  N        13.8384210006        5.1994192698       17.5753136927
  C        12.5205227640        5.4709488149       17.3059004380
  N         3.0227309755       17.5821609046       16.0258255732
  C         1.7048326622       17.3103986798       16.2946522502
  N        13.8384296621       17.5753123091        5.1994188623
  C        12.5205234938       17.3059001679        5.4709496741
  N        19.7013601969        5.2001392709       16.0200023609
  C        21.0188859432        5.4714026489       16.2915441630
  N         8.8741082460        5.2052816224        5.2052832452
  C        10.1922390914        5.4747164143        5.4747184692
  N         6.7320522056       19.7358583817       17.5818779580
  C         6.4617862303       21.0533440702       17.3115210155
  N         6.7180905140        8.9157886191        6.7655487044
  C         6.4467417548       10.2332762972        6.4972732548
  N         6.7206739568        3.0527011346        5.2053230174
  C         6.4515316318        1.7348815250        5.4752706168
  N         6.7290115376       13.8712983687       16.0241603579
  C         6.4585955050       12.5537317881       16.2940490169
  N        15.9932481356        3.0450431413       17.5748703372
  C        16.2638671798        1.7276537349       17.3046580462
  N        15.9927567930       13.8658134150        6.7569773130
  C        16.2611522976       12.5481393696        6.4860963603
  N        15.9910159218       19.7291067353        5.1979433630
  C        16.2586628681       21.0470379234        5.4688729217
  N        15.9936080253        8.9097739112       16.0193246647
  C        16.2641762866       10.2272840777       16.2892512989
  N        17.5446976293        6.7552162693       19.7304576828
  C        17.2733415309        6.4853811158       21.0477711490
  N        17.5467447207       17.5771240614        8.9091687852
  C        17.2784582209       17.3061541358       10.2268475850
  N         5.1674531991        6.7628890225        3.0518865028
  C         5.4372422361        6.4921452718        1.7342902204
  N         5.1757746985       17.5815349355       13.8718460767
  C         5.4442302683       17.3108360090       12.5541670381
  N        17.5471867107       16.0176891407        3.0459980751
  C        17.2784007881       16.2879662719        1.7281699518
  N        17.5464148081        5.1995408751       13.8651712625
  C        17.2755152048        5.4692351622       12.5476599729
  N         5.1780510077       16.0245146194       19.7351598485
  C         5.4472466780       16.2947581986       21.0528414886
  N         5.1642041433        5.2080764488        8.9160632561
  C         5.4324548126        5.4802625535       10.2336466066
  N        17.5506192204       19.7297889248       16.0181662526
  C        17.2802625299       21.0473257115       16.2882147872
  N        17.5421526740        8.9092205242        5.1980279242
  C        17.2733733039       10.2268800788        5.4685416402
  N         5.1744120505        3.0511701612       16.0251169529
  C         5.4452345756        1.7337025931       16.2950321896
  N         5.1685986349       13.8723209082        5.2069810471
  C         5.4346824567       12.5545112314        5.4796848391
  N        17.5403937025        3.0461586129        6.7554756836
  C        17.2709771953        1.7285113847        6.4854707829
  N        17.5508425120       13.8651973318       17.5754582970
  C        17.2805076884       12.5476469970       17.3053726378
  N         5.1714849858       19.7354983349        6.7631122080
  C         5.4394645503       21.0533424444        6.4921672223
  N         5.1726855298        8.9159504889       17.5814407342
  C         5.4427590673       10.2334285875       17.3108365227
  N        19.6952213185        6.7562471491        5.1998392951
  C        21.0130484149        6.4880012346        5.4722499087
  N         8.8802910502        6.7600649674       16.0223327685
  C        10.1982846053        6.4885806589       16.2915803861
  N         3.0171057652        6.7609500633       17.5808803763
  C         1.6996061513        6.4895268791       17.3096250457
  N        13.8344496834        6.7574553487        6.7574562149
  C        12.5160888477        6.4882905004        6.4882909663
  N         3.0195358935       16.0257822005        5.2033426720
  C         1.7011495208       16.2944486560        5.4732001810
  N        13.8422281351       16.0198487712       16.0198507282
  C        12.5244905094       16.2909535484       16.2909536817
  N        19.7046174625       16.0198510022       17.5763503116
  C        21.0225855968       16.2918016903       17.3075915320
  N         8.8802898680       16.0223365429        6.7600643119
  C        10.1982827160       16.2915794956        6.4885845355
  N         6.7271018214       17.5830595103        3.0521999961
  C         6.4593301119       17.3120899707        1.7342729411
  N         6.7210126821        6.7651550671       13.8712996644
  C         6.4484791897        6.4970259062       12.5538637387
  N         6.7256212260        5.2059432219       19.7365640869
  C         6.4540671577        5.4754885405       21.0539669146
  N         6.7272290522       16.0246233608        8.9152608855
  C         6.4575699668       16.2943426501       10.2329002453
  N        15.9975067976       17.5759879311       19.7292032349
  C        16.2660275155       17.3051589278       21.0469002738
  N        15.9893660982        6.7561543143        8.9098036668
  C        16.2593472806        6.4857015186       10.2273373483
  N        15.9853546686        5.1991631021        3.0455407691
  C        16.2558164416        5.4693646760        1.7279991895
  N        15.9967810633       16.0183633642       13.8656519565
  C        16.2658733665       16.2887817409       12.5480355600
 Zn        14.7057058096       14.7250851932       14.7250867438
 Br        13.3877434353       13.4124258613       13.4124268129
 Zn        14.6935798460        3.9057142166        3.9057168730
 Br        13.3760617071        2.5928734886        2.5928754603
 Zn         3.8836503357       14.7314100569        3.9085497225
 Br         2.5659880554       13.4187358569        2.5954164075
 Zn         3.8836357595        3.9085475907       14.7314015788
 Br         2.5659801189        2.5954126507       13.4187314295
 Zn         8.0158178429        8.0548402210       14.7286383564
 Br         9.3317688453        9.3682269638       13.4145845445
 Zn         8.0166241588       18.8761435065        3.9123184578
 Br         9.3334085915       20.1902257073        2.5995565393
 Zn        18.8323610531        8.0496102424        3.9041644048
 Br        20.1489515313        9.3621808781        2.5901517439
 Zn        18.8406827111       18.8702536780       14.7243679459
 Br        20.1579196102       20.1827753188       13.4106700321
 Zn         8.0158134931       14.7286445224        8.0548347926
 Br         9.3317691944       13.4145860163        9.3682253770
 Zn         8.0166269307        3.9123056203       18.8761451428
 Br         9.3334081099        2.5995550346       20.1902268499
 Zn        18.8406771580       14.7243592865       18.8702615981
 Br        20.1579224202       13.4106633713       20.1827810556
 Zn        18.8323620573        3.9041644373        8.0496132361
 Br        20.1489516321        2.5901515960        9.3621844382
 Zn        14.7000195804        8.0513599708        8.0513596843
 Br        13.3838958872        9.3650944393        9.3650951607
 Zn        14.7076014464       18.8706594848       18.8706589860
 Br        13.3919499012       20.1844819627       20.1844837387
 Zn         3.8809524116        8.0557841666       18.8742223995
 Br         2.5648233488        9.3702992989       20.1871478249
 Zn         3.8809591393       18.8742109163        8.0557799634
 Br         2.5648272787       20.1871431742        9.3702967728
 Zn        14.7030567940       14.7252888035        8.0512293590
 Br        13.3858776391       13.4128334538        9.3650463333
 Zn        14.7022743065        3.9036449757       18.8689180640
 Br        13.3850759418        2.5900366832       20.1815597428
 Zn         3.8865537715       14.7308591494       18.8754459910
 Br         2.5700390115       13.4184287499       20.1899721247
 Zn         3.8764191596        3.9108886187        8.0556826575
 Br         2.5600706096        2.5983330812        9.3702961463
 Zn         8.0124911941        8.0556532539        8.0556577711
 Br         9.3284908561        9.3692947608        9.3692952635
 Zn         8.0231828005       18.8744943288       18.8744938583
 Br         9.3409917435       20.1873900269       20.1873864282
 Zn        18.8353310877        8.0497205420       18.8722714075
 Br        20.1523642918        9.3623915807       20.1859221669
 Zn        18.8353231539       18.8722719936        8.0497251547
 Br        20.1523634017       20.1859223121        9.3623942943
 Zn        14.7030549264        8.0512354515       14.7252851232
 Br        13.3858747062        9.3650490927       13.4128325351
 Zn        14.7022850962       18.8689140679        3.9036414926
 Br        13.3850795797       20.1815595393        2.5900358657
 Zn         3.8764170593        8.0556883098        3.9108940860
 Br         2.5600696490        9.3702986484        2.5983349724
 Zn         3.8865546865       18.8754484657       14.7308593878
 Br         2.5700368750       20.1899715029       13.4184293744
 Zn         8.0184623692       14.7290257741       14.7290268924
 Br         9.3342142259       13.4151574038       13.4151570859
 Zn         8.0111986928        3.9107749746        3.9107662132
 Br         9.3268377071        2.5969776230        2.5969752200
 Zn        18.8377453386       14.7243471155        3.9060969751
 Br        20.1546130737       13.4106454959        2.5933222553
 Zn        18.8377388361        3.9060866561       14.7243431934
 Br        20.1546090997        2.5933180202       13.4106446870
 Zn         5.9498431354        5.9878559906       16.8076682580
 Zn        16.7731125313       16.7964154659       16.7964211645
 Zn        16.7662481527        5.9763556458        5.9763568214
 Zn         5.9498458921       16.8076679882        5.9878570499
 Zn         5.9459312547        5.9884555537        5.9884535299
 Zn        16.7699888851       16.7968038399        5.9765550234
 Zn         5.9531721205       16.8074067741       16.8074070972
 Zn        16.7699861723        5.9765478302       16.7968042263
  N         3.7648645405        5.9824554639       16.8038691936
  N        14.5797678642        5.9786745585        5.9786764156
  N        18.9581004129       16.7972529446       16.7972378966
  N         8.1337902548       16.8022400098        5.9835210349
  N        18.9487052518        5.9768916607        5.9768856381
  N         8.1337793454        5.9835198155       16.8022376402
  N         3.7648563248       16.8038580763        5.9824438428
  N        14.5895525664       16.7977040520       16.7977052933
  N        16.7625974155        3.7926394262        5.9775140716
  N        16.7738133439       14.6122863855       16.7970756191
  N        16.7742000172       18.9825317646       16.7971193896
  N        16.7653064235        8.1625590902        5.9768941287
  N         5.9494873569       18.9893302474        5.9850619326
  N         5.9498828541        8.1689175159       16.8032967001
  N         5.9499631650        3.7987753390       16.8045135002
  N         5.9466319074       14.6188967566        5.9847462231
  N         5.9499624510       16.8045080338        3.7987649902
  N         5.9466457974        5.9847618076       14.6189064492
  N        16.7741769708       16.7971292905       18.9825319689
  N        16.7653093296        5.9769034349        8.1625589452
  N         5.9494964021        5.9850513260       18.9893214819
  N         5.9498780495       16.8033048539        8.1689283668
  N        16.7626008641        5.9775087830        3.7926399353
  N        16.7738250736       16.7970956080       14.6122885777
  N         5.9440661899        3.7993644298        5.9842958873
  N         5.9529376741       14.6186346941       16.8031345776
  N        16.7686048520       18.9828169954        5.9764118346
  N        16.7694096191        8.1624958178       16.7987367543
  N         5.9551434099       18.9888407109       16.8032464083
  N         5.9421605819        8.1692615417        5.9857297871
  N        16.7695593660        3.7923763047       16.7960087399
  N        16.7699756274       14.6123716569        5.9783647988
  N         3.7692527929       16.8048044630       16.8048094337
  N        14.5850808331       16.7968464257        5.9772854880
  N        18.9537101151       16.7981357609        5.9777338507
  N         8.1383642568       16.8020029419       16.8020025510
  N        18.9537045301        5.9777245666       16.7981308765
  N         8.1285684218        5.9839120087        5.9839121199
  N         3.7595857971        5.9843059767        5.9843105253
  N        14.5850816524        5.9772766670       16.7968571340
  N        16.7686025357        5.9764069494       18.9828143202
  N        16.7693928780       16.7987266547        8.1625049590
  N        16.7695755709       16.7959951657        3.7923752943
  N        16.7699802644        5.9783565250       14.6123766248
  N         5.9440584141        5.9843020981        3.7993632413
  N         5.9529431282       16.8031302535       14.6186369732
  N         5.9551371067       16.8032379007       18.9888398537
  N         5.9421535987        5.9857240331        8.1692611396
  C        11.3624801109       15.7424138044       15.7424138780
  H        11.3613531945       14.9669251656       14.9669262551
  C        11.3523414856        4.9241651876        4.9241682030
  H        11.3507078998        4.1486718630        4.1486765869
  C         0.5410946433       15.7436113560        4.9228053897
  H         0.5428886985       14.9682474442        4.1472082687
  C         0.5410934156        4.9228028370       15.7436079487
  H         0.5428876916        4.1472081595       14.9682451622
  C        11.3595640615        7.0367868964       15.7411581043
  H        11.3597163853        7.8121141806       14.9655171577
  C        11.3592815914       17.8565655163        4.9229785801
  H        11.3591121479       18.6324183870        4.1478502490
  C         0.5340741485        7.0391094705        4.9243705619
  H         0.5340421383        7.8147347195        4.1490263325
  C         0.5437227875       17.8584839698       15.7438428744
  H         0.5438116393       18.6340896822       14.9684745195
  C        11.3595663690       15.7411601431        7.0367860954
  H        11.3597181119       14.9655174730        7.8121152176
  C        11.3592869779        4.9229770781       17.8565647513
  H        11.3591098993        4.1478522832       18.6324140916
  C         0.5437321318       15.7438392182       17.8584870260
  H         0.5438134404       14.9684687003       18.6340937885
  C         0.5340750833        4.9243653278        7.0391056836
  H         0.5340431212        4.1490178831        7.8147287052
  C        11.3559364145        7.0388203062        7.0388190318
  H        11.3573925533        7.8143071202        7.8143037984
  C        11.3654453849       17.8570401777       17.8570361831
  H        11.3667434878       18.6325345267       18.6325292321
  C         0.5374592938        7.0379296496       17.8577823937
  H         0.5357042448        7.8135971091       18.6330771623
  C         0.5374706786       17.8577814992        7.0379309975
  H         0.5357094134       18.6330780292        7.8136014306
  C        15.7157824987       11.3879414720       15.7385687605
  H        14.9408383501       11.3883866522       14.9625051491
  C        15.7075727033        0.5669823173        4.9191025018
  H        14.9323990881        0.5660296203        4.1432520772
  C         4.8839829263       11.3944774251        4.9298428843
  H         4.1097586609       11.3950387182        4.1530622463
  C         4.8970788954        0.5728827129       15.7444319073
  H         4.1220877283        0.5721636613       14.9684072318
  C        15.7109960095       11.3880505129        7.0363556672
  H        14.9363185661       11.3885722893        7.8127036982
  C        15.7156527756        0.5668837843       17.8552755960
  H        14.9407665514        0.5662264154       18.6313925274
  C         4.8940484030       11.3941682035       17.8610842259
  H         4.1192057594       11.3946419160       18.6372456033
  C         4.8889474688        0.5733360913        7.0424132495
  H         4.1142334303        0.5724171591        7.8187180751
  C         7.0073364987       11.3930467480       15.7437362404
  H         7.7823131154       11.3925127622       14.9676817857
  C         7.0018705022        0.5749640332        4.9248610846
  H         7.7767653135        0.5758326022        4.1487523894
  C        17.8235552248       11.3869286733        4.9183210442
  H        18.5983036836       11.3864243718        4.1420649249
  C        17.8286052709        0.5681097296       15.7376440419
  H        18.6034335912        0.5687680490       14.9614504475
  C         6.9960806095       11.3932538013        7.0484288552
  H         7.7711219795       11.3926468117        7.8243963225
  C         7.0098592109        0.5742547428       17.8621773568
  H         7.7845787813        0.5750011612       18.6384781763
  C        17.8289404117       11.3869562076       17.8560231041
  H        18.6039292444       11.3864902434       18.6320530170
  C        17.8216123725        0.5686588493        7.0356022508
  H        18.5969710355        0.5695412161        7.8112502718
  C        15.7157710531       15.7385802360       11.3879407350
  H        14.9408247219       14.9625168973       11.3883890001
  C        15.7075765485        4.9190955544        0.5669857308
  H        14.9324040719        4.1432469304        0.5660323277
  C         4.8970814997       15.7444349428        0.5728948949
  H         4.1220881559       14.9684118203        0.5721654482
  C         4.8839783723        4.9298426464       11.3944688470
  H         4.1097542615        4.1530636304       11.3950358958
  C         7.0073421366       15.7437412829       11.3930417970
  H         7.7823221961       14.9676856114       11.3925130611
  C         7.0018702893        4.9248621598        0.5749772175
  H         7.7767654381        4.1487576439        0.5758355239
  C        17.8286003678       15.7376339166        0.5681136702
  H        18.6034295968       14.9614377431        0.5687696721
  C        17.8235669954        4.9183325177       11.3869259064
  H        18.5983168816        4.1420795269       11.3864237949
  C        15.7110036451        7.0363651377       11.3880452199
  H        14.9363258963        7.8127122426       11.3885708838
  C        15.7156485159       17.8552664023        0.5668924042
  H        14.9407614231       18.6313837360        0.5662308105
  C         4.8889395228        7.0424095866        0.5733400538
  H         4.1142240929        7.8187107401        0.5724183963
  C         4.8940521471       17.8610852495       11.3941592786
  H         4.1192070181       18.6372474851       11.3946409985
  C         6.9960797242        7.0484280384       11.3932448346
  H         7.7711189812        7.8243917964       11.3926449170
  C         7.0098647442       17.8621738431        0.5742580373
  H         7.7845885455       18.6384754066        0.5750018565
  C        17.8216190624        7.0355929425        0.5686658406
  H        18.5969784346        7.8112390764        0.5695426934
  C        17.8289291034       17.8560316503       11.3869564573
  H        18.6039173159       18.6320613925       11.3864937090
 Kr         3.1791453843       10.5059151546       10.5059149240
