     409
 i =     176, E =    -5136.7114718022
  N         2.9096409965        5.2012674342       15.9837291716
  C         1.5925469503        5.4782449245       16.2509146020
  N        13.7013036614        5.1200945665        5.1201272486
  C        12.3801007832        5.3859571442        5.3862095638
  N        19.6392767225       17.5911106136       16.0351570358
  C        20.9567854489       17.3109075798       16.2951695302
  N         8.7734026878       17.5492644869        5.1796248335
  C        10.0923670274       17.2740016816        5.4399448354
  N        19.5643672972        5.2091568980        6.7649223218
  C        20.8821686223        5.4779217174        6.4938057448
  N         8.7731844057        5.1795037607       17.5494078444
  C        10.0921573543        5.4397178338       17.2741121517
  N         2.9150772721       17.5358367502        6.7609377447
  C         1.5965871936       17.2663578497        6.4942042111
  N        13.7769214775       17.6268911336       17.6269565650
  C        12.4591331712       17.3534307889       17.3535094133
  N        15.9050464873        3.0137258671        5.1610755700
  C        16.1821340422        1.6996085620        5.4388422987
  N        15.9253729104       13.8972521293       16.0415948609
  C        16.1955618980       12.5778553764       16.3017768361
  N        15.9489490236       19.7620277800       17.6032055995
  C        16.2039304504       21.0782381892       17.3122748745
  N        15.8115893396        8.8718862091        6.7307895179
  C        16.0929453303       10.1928105716        6.4896306298
  N         6.6021867011       19.6947070647        5.1902960123
  C         6.3196787493       21.0105338248        5.4528255610
  N         6.6655575907        8.8955515552       15.9976114020
  C         6.4074023205       10.2159393448       16.2724469538
  N         6.6104349346        3.0409823576       17.5545073276
  C         6.3450449917        1.7224865186       17.2881218910
  N         6.6098381677       13.8242508522        6.7407788084
  C         6.3414655952       12.5074382766        6.4632044685
  N         5.0612367393       15.9931624870        3.0322604914
  C         5.3347499865       16.2674126136        1.7158104307
  N         5.0568498029        5.1826412120       13.8319381000
  C         5.3261175759        5.4470209278       12.5129267411
  N        17.4902155028       16.0325534073       19.7565756245
  C        17.2101032353       16.2868999991       21.0756121198
  N        17.3824216700        5.1916651324        8.8886910993
  C        17.1167142595        5.4835776784       10.2027042881
  N         5.0602485943        6.7592979052       19.6899129063
  C         5.3135968302        6.4780436192       21.0085286392
  N         5.0889266316       17.5324456311        8.9041491772
  C         5.3775850562       17.2737692050       10.2199111171
  N        17.4433548091        6.7344913884        3.0298706256
  C        17.1870293269        6.4649950473        1.7090874067
  N        17.4851321019       17.5927312131       13.8863210077
  C        17.2135458867       17.3148335792       12.5703272944
  N         5.0158655768        3.0085933377        6.7227996970
  C         5.2910812891        1.6899550901        6.4603941064
  N         5.1231979263       13.8573524201       17.5555382020
  C         5.3941093371       12.5405270248       17.2846900332
  N        17.4636178680       19.7114210822        6.7573312001
  C        17.1962318273       21.0276065111        6.4766086656
  N        17.4597389223        8.9286842876       17.5768900081
  C        17.2000194413       10.2483737276       17.3065195953
  N         5.0903384744       19.7143231675       16.0048844644
  C         5.3486735375       21.0344520725       16.2741136979
  N         5.0533628905        8.8756200320        5.1587032878
  C         5.3265431851       10.1914683110        5.4343404242
  N        17.4355425551        3.0764010885       15.9666822030
  C        17.1837915358        1.7577432038       16.2529557421
  N        17.4117193640       13.8404200593        5.2693213305
  C        17.1309998798       12.5226922330        5.5245723378
  N         2.9548612492       15.9967597558       17.5514717120
  C         1.6373773782       16.2761586975       17.2916589419
  N        13.7314700273       15.9958298436        6.7371212529
  C        12.4142732925       16.2515726119        6.4498694143
  N        19.5910650412       15.9747513989        5.2297077403
  C        20.9106528969       16.2465953344        5.4906371245
  N         8.8339616500       16.0429828298       16.0430478571
  C        10.1469709356       16.3238675764       16.3239565084
  N        19.5992723181        6.7745997197       17.5413740342
  C        20.9152342287        6.5008299928       17.2677000756
  N         8.7454201619        6.6836753405        6.6841181550
  C        10.0596344556        6.4066018803        6.4071160910
  N         2.8804817413        6.7465904557        5.1911333482
  C         1.5630195866        6.4848621918        5.4693573998
  N        13.7312819747        6.7367894204       15.9959862565
  C        12.4140865955        6.4494995167       16.2516703666
  N        15.9169850800        5.1923933400       19.7020931429
  C        16.1880413697        5.4535300777       21.0203552808
  N        15.8977353191       16.0265649677        8.9395096422
  C        16.1809542955       16.2938397657       10.2559571525
  N        15.8951895248       17.5368390515        3.0740994175
  C        16.1780620552       17.2781225217        1.7578743173
  N        15.8515090240        6.8239983064       13.8344997998
  C        16.1106520643        6.5372744723       12.5168328854
  N         6.5566208173        5.1527674528        3.0056979253
  C         6.2964849237        5.4347871589        1.6895066994
  N         6.7017890354       16.0220710691       13.8592744495
  C         6.4247420313       16.2839538949       12.5400337893
  N         6.6321119052       17.5737395974       19.7274535107
  C         6.3562616307       17.2978283586       21.0425327032
  N         6.6145911604        6.7083914531        8.8656538158
  C         6.3448147835        6.4472093329       10.1855453713
  N        19.5994838578       17.5413313616        6.7745831899
  C        20.9154501274       17.2676928602        6.5008045848
  N         8.8116784712       17.5991875561       17.5991744194
  C        10.1344685316       17.3394952953       17.3395332023
  N         2.8805005263        5.1910841401        6.7466764106
  C         1.5630273638        5.4692886250        6.4849767231
  N        13.7332463698        5.2088531090       17.5781453964
  C        12.4147611129        5.4553911547       17.2883601054
  N         2.9548464726       17.5514782943       15.9967350059
  C         1.6373690444       17.2916596987       16.2761529149
  N        13.7334506614       17.5778841646        5.2090713728
  C        12.4149643137       17.2881830805        5.4556746949
  N        19.5908270891        5.2298338936       15.9746737756
  C        20.9104233814        5.4907215420       16.2465421602
  N         8.7337366219        5.1278154932        5.1279072196
  C        10.0548963444        5.3911674236        5.3914449363
  N         6.6320845953       19.7274702099       17.5737085399
  C         6.3561867790       21.0425433107       17.2978192283
  N         6.6148081446        8.8655574923        6.7083983045
  C         6.3450495625       10.1854545807        6.4472112500
  N         6.5566502582        3.0056702359        5.1527474233
  C         6.2965587271        1.6894675499        5.4347657315
  N         6.7017526770       13.8592485527       16.0220793910
  C         6.4246828211       12.5400113014       16.2839635968
  N        15.8950635440        3.0740744070       17.5369050217
  C        16.1779612803        1.7578590772       17.2781628772
  N        15.8520505112       13.8344446614        6.8236215155
  C        16.1112594241       12.5168043323        6.5368411124
  N        15.9170795581       19.7020096544        5.1925084552
  C        16.1880925658       21.0202801053        5.4536883017
  N        15.8976144489        8.9394764950       16.0267694307
  C        16.1808998034       10.2559211749       16.2939599681
  N        17.4635306211        6.7571937116       19.7114948693
  C        17.1961981622        6.4764273488       21.0276692362
  N        17.4598587438       17.5766890326        8.9287023977
  C        17.2000798082       17.3063946569       10.2483948726
  N         5.0158524055        6.7228340421        3.0086671548
  C         5.2910217535        6.4604302864        1.6900172887
  N         5.1232429237       17.5555445977       13.8573450296
  C         5.3941805488       17.2846938325       12.5405242926
  N        17.4357691848       15.9667306929        3.0763698431
  C        17.1839488975       16.2529730332        1.7577268893
  N        17.4111410235        5.2696269628       13.8403655445
  C        17.1303500793        5.5249575262       12.5226558071
  N         5.0903676640       16.0049144274       19.7143297605
  C         5.3487483904       16.2741232365       21.0344545152
  N         5.0532630893        5.1585913815        8.8756901284
  C         5.3263705427        5.4342795196       10.1915407203
  N        17.4901638537       19.7565777328       16.0326117951
  C        17.2100183452       21.0756122696       16.2869435759
  N        17.3830820182        8.8887531119        5.1910558259
  C        17.1174226053       10.2027571987        5.4830199643
  N         5.0610189966        3.0322559835       15.9932365023
  C         5.3345795182        1.7158073540       16.2674528193
  N         5.0570535784       13.8318681876        5.1826967058
  C         5.3263275888       12.5128538232        5.4470572017
  N        17.4431592369        3.0298661218        6.7348276841
  C        17.1869394345        1.7090553764        6.4652841490
  N        17.4851157154       13.8863046619       17.5927113522
  C        17.2135332921       12.5703037567       17.3148475579
  N         5.0604139229       19.6898573532        6.7592951984
  C         5.3137364715       21.0084706325        6.4780203662
  N         5.0887973027        8.9041560859       17.5324795614
  C         5.3774766075       10.2199125311       17.2737895993
  N        19.5644088426        6.7646848139        5.2091755509
  C        20.8821727764        6.4935933666        5.4780171862
  N         8.7768927447        6.6961272292       15.9553524834
  C        10.0934301898        6.4288124369       16.2329703751
  N         2.9148775791        6.7609554058       17.5358619509
  C         1.5963781692        6.4942405095       17.2663709522
  N        13.6929459207        6.6753634454        6.6755806181
  C        12.3780105325        6.4014902104        6.4019101687
  N         2.9098619958       15.9837299518        5.2012218631
  C         1.5927648533       16.2509260471        5.4781823379
  N        13.7852679555       16.0712648761       16.0713924602
  C        12.4668461907       16.3377334727       16.3378561563
  N        19.6392928187       16.0350997991       17.5911335490
  C        20.9567938762       16.2951371391       17.3109244935
  N         8.7770567134       15.9553370944        6.6963813489
  C        10.0936098025       16.2329464228        6.4291387910
  N         6.6106438954       17.5544292898        3.0409810061
  C         6.3452147737       17.2880814803        1.7224804366
  N         6.6095979241        6.7407629921       13.8243350638
  C         6.3412238602        6.4632015235       12.5075218160
  N         6.6019960734        5.1902759099       19.6947583521
  C         6.3195202078        5.4528315444       21.0105800780
  N         6.6656365526       15.9975154465        8.8955849076
  C         6.4074811861       16.2723963398       10.2159630513
  N        15.9489667067       17.6031082320       19.7620544821
  C        16.2039853154       17.3122029192       21.0782584802
  N        15.8110411113        6.7316108074        8.8718388816
  C        16.0923176044        6.4902836399       10.1927677222
  N        15.9051396304        5.1608384743        3.0137912545
  C        16.1821708914        5.4386081678        1.6996615428
  N        15.9253601269       16.0416432032       13.8973039080
  C        16.1955522148       16.3017806151       12.5778963506
 Zn        14.6223617899       14.7724996796       14.7724984766
 Br        13.2252497353       13.5025305524       13.5018820250
 Zn        14.6115425266        3.8452783082        3.8453671195
 Br        13.3380393739        2.5114161506        2.5115773744
 Zn         3.7689391011       14.7039841699        3.8942017365
 Br         2.4439244143       13.4016379947        2.5764081385
 Zn         3.7686695459        3.8941875324       14.7040510579
 Br         2.4436788355        2.5764077079       13.4016682260
 Zn         7.9214362981        8.0129873461       14.6804375346
 Br         9.2130812394        9.3294412962       13.3455206879
 Zn         7.9029073464       18.8443754733        3.8996210451
 Br         9.2172918749       20.1657315394        2.5915605903
 Zn        18.7043450287        8.0485645935        3.9062713942
 Br        20.0209615656        9.3713810417        2.6045595174
 Zn        18.7783497443       18.8857254585       14.7436067186
 Br        20.0910801780       20.1997347651       13.4252238150
 Zn         7.9216174876       14.6803114583        8.0130868101
 Br         9.2133473087       13.3455285249        9.3295911020
 Zn         7.9027250617        3.8995613114       18.8445291960
 Br         9.2170559058        2.5914454875       20.1658697410
 Zn        18.7783614875       14.7435014097       18.8857137461
 Br        20.0910745241       13.4250701475       20.1996825534
 Zn        18.7038792039        3.9065940694        8.0489031860
 Br        20.0203408793        2.6050371389        9.3720424286
 Zn        14.5029915943        7.9830085161        7.9818346011
 Br        13.0885876947        9.2471248763        9.2423300178
 Zn        14.6615172753       18.9121935365       18.9123094666
 Br        13.3557452894       20.2305655216       20.2306930227
 Zn         3.7828447828        8.0585217851       18.8212158589
 Br         2.4707908031        9.3777649851       20.1334964253
 Zn         3.7829676067       18.8211964334        8.0585152500
 Br         2.4709143456       20.1335164389        9.3777112947
 Zn        14.5699325237       14.7557673385        8.0946620419
 Br        13.1310393973       13.6560353846        9.4757639378
 Zn        14.6085267200        3.9107757840       18.8483109629
 Br        13.3009022739        2.5879505570       20.1603503714
 Zn         3.8161648111       14.7069366393       18.8391970275
 Br         2.4989247312       13.3894103252       20.1494687523
 Zn         3.7388488616        3.8830796921        8.0217226178
 Br         2.4265966129        2.5757069862        9.3465495904
 Zn         7.9058403715        7.9878141369        7.9880239748
 Br         9.2073788116        9.3078561630        9.3082250109
 Zn         7.9181408671       18.8808597748       18.8808263578
 Br         9.2135563548       20.2053024477       20.2052590562
 Zn        18.7562338782        8.0557635429       18.8585232214
 Br        20.0786761551        9.3516782354       20.1827381407
 Zn        18.7563796531       18.8583058409        8.0558049592
 Br        20.0787114506       20.1825924145        9.3517845026
 Zn        14.5694284260        8.0948016087       14.7562612634
 Br        13.1294706983        9.4765605680       13.6587450575
 Zn        14.6086055122       18.8480524035        3.9109554193
 Br        13.3009448654       20.1601120982        2.5881730247
 Zn         3.7388512691        8.0217264512        3.8832108820
 Br         2.4266969582        9.3466366723        2.5758321807
 Zn         3.8161533207       18.8391814587       14.7068994231
 Br         2.4989483166       20.1494433033       13.3893273929
 Zn         7.9974771867       14.7398709203       14.7399264438
 Br         9.2909476328       13.4156790525       13.4157608372
 Zn         7.8458369750        3.8458356334        3.8458140291
 Br         9.1505638324        2.5263755629        2.5263435770
 Zn        18.7126841975       14.6730935921        3.9578885379
 Br        20.0139893733       13.3395853079        2.6501147117
 Zn        18.7123293941        3.9581261417       14.6729866358
 Br        20.0135413380        2.6503880877       13.3393804467
 Zn         5.8433735804        5.9650223610       16.7633968978
 Zn        16.7139852720       16.8292350321       16.8292517738
 Zn        16.6274570030        5.9457427104        5.9456832183
 Zn         5.8435042748       16.7633460331        5.9650671081
 Zn         5.8056582854        5.9399298120        5.9399830974
 Zn        16.6620515449       16.7761994185        6.0076614990
 Zn         5.8936798985       16.7852577327       16.7852393424
 Zn        16.6618832903        6.0076608231       16.7762951194
  N         3.6588205217        5.9782807363       16.7603453130
  N        14.4437625038        5.9007653300        5.9007574253
  N        18.8928675157       16.8183038008       16.8183454839
  N         8.0284580871       16.7527100850        5.9408929213
  N        18.8175425559        5.9867523540        5.9868818178
  N         8.0282664732        5.9407484680       16.7528083255
  N         3.6590278584       16.7603244952        5.9782554250
  N        14.5278443156       16.8503374421       16.8504278365
  N        16.6681562358        3.7680855569        5.9460100547
  N        16.7051415802       14.6389693122       16.8223405172
  N        16.7260973182       19.0128377224       16.8271788383
  N        16.5934350697        8.1335709702        5.9481568345
  N         5.8389510998       18.9454992090        5.9796268907
  N         5.8683212923        8.1532435559       16.7603947436
  N         5.8339340132        3.7834013998       16.7719621640
  N         5.8339439082       14.5748904543        5.9649424690
  N         5.8341685805       16.7718705768        3.7834053429
  N         5.8337251544        5.9648960616       14.5749661607
  N        16.7261137988       16.8270908738       19.0128485818
  N        16.5929019497        5.9488980417        8.1335274983
  N         5.8387591233        5.9796044002       18.9455499883
  N         5.8684321364       16.7603178280        8.1532592355
  N        16.6683327575        5.9457035980        3.7681181529
  N        16.7051377136       16.8223856684       14.6390002986
  N         5.7831443986        3.7539638692        5.9327905644
  N         5.9134575128       14.6046720937       16.7910553375
  N        16.6886837758       18.9597911333        5.9804278653
  N        16.6723904582        8.1878596819       16.8032704392
  N         5.8660167400       18.9739803554       16.7907331215
  N         5.8327048632        8.1239373871        5.9301800030
  N        16.6572676111        3.8221915481       16.7456004796
  N        16.6378047336       14.5842292775        6.0530547470
  N         3.7021293657       16.7691754356       16.7691587899
  N        14.4788901246       16.7963816421        5.9848093184
  N        18.8483729695       16.7586689758        6.0057185521
  N         8.0763188055       16.8155676608       16.8155732442
  N        18.8481489049        6.0058025604       16.7586663315
  N         7.9929030076        5.9090374365        5.9092244277
  N         3.6270088911        5.9640877121        5.9641535778
  N        14.4786957314        5.9845791312       16.7966280335
  N        16.6885638830        5.9803181834       18.9598616644
  N        16.6725454631       16.8030237619        8.1878868871
  N        16.6574750915       16.7455818810        3.8221884527
  N        16.6372809073        6.0533607673       14.5842341345
  N         5.7831412478        5.9328215242        3.7540147309
  N         5.9134797750       16.7910581074       14.6046792834
  N         5.8660237398       16.7907770162       18.9739743165
  N         5.8325856475        5.9301094260        8.1240169296
  C        11.3129378113       15.7816438947       15.7817827861
  H        11.3248518566       15.0062103017       15.0063721509
  C        11.2153001597        4.8387167840        4.8388951821
  H        11.2103189352        4.0632580053        4.0632411254
  C         0.4297133535       15.6976139269        4.9362735019
  H         0.4275886756       14.9201579546        4.1627695117
  C         0.4294939547        4.9363694184       15.6975625793
  H         0.4273818624        4.1628896541       14.9200838294
  C        11.2531579055        6.9705415738       15.6758860311
  H        11.2541779493        7.7290380207       14.8840612390
  C        11.2538629031       17.8420500613        4.9094587294
  H        11.2541699703       18.6367506319        4.1536437096
  C         0.4026854331        7.0398734070        4.9247072944
  H         0.4034796753        7.8149117229        4.1486664431
  C         0.4771634795       17.8511019927       15.7357309283
  H         0.4776426965       18.6265442157       14.9601333104
  C        11.2533187989       15.6758919876        6.9709705256
  H        11.2542933385       14.8840989027        7.7295075269
  C        11.2536286024        4.9092400472       17.8422309976
  H        11.2538863853        4.1535006021       18.6370015166
  C         0.4771861599       15.7357149649       17.8511071282
  H         0.4776899307       14.9601132828       18.6265451497
  C         0.4027093121        4.9246682907        7.0400798905
  H         0.4035681505        4.1486866942        7.8151768313
  C        11.2207608075        6.9529873476        6.9536264625
  H        11.2266705649        7.7283072810        7.7290171268
  C        11.2903280884       17.8960817190       17.8961183997
  H        11.2801961194       18.6715759459       18.6715755617
  C         0.4377399889        7.0454367555       17.8183748530
  H         0.4402990112        7.8181372262       18.5967248710
  C         0.4379533687       17.8183464350        7.0454277786
  H         0.4405188375       18.5966697734        7.8181556053
  C        15.6388501355       11.4222908381       15.7485651926
  H        14.8564690749       11.4292622034       14.9803134725
  C        15.6418575681        0.5350720008        4.8898733365
  H        14.8737749275        0.5278339364        4.1069385768
  C         4.7762108195       11.3551661994        4.8917876757
  H         3.9994134159       11.3591265922        4.1176797159
  C         4.7951182820        0.5503933294       15.7175819996
  H         4.0245707408        0.5433578691       14.9371934084
  C        15.5490713800       11.3482681617        7.0589776383
  H        14.7656852488       11.3326208815        7.8257337335
  C        15.6464428352        0.5999198397       17.8501671930
  H        14.8782177689        0.6035731524       18.6330343191
  C         4.8290842842       11.3815873943       17.8214667697
  H         4.0421279511       11.3837393817       18.5854539374
  C         4.7578448681        0.5282987960        7.0245394161
  H         3.9907507659        0.5265134272        7.8083612691
  C         6.9745136392       11.3765245330       15.7380940877
  H         7.7597224886       11.3748793730       14.9725181169
  C         6.8517619198        0.5310444424        4.8876903742
  H         7.6194474917        0.5326452458        4.1044084490
  C        17.6771972122       11.3689015635        4.9582737386
  H        18.4569588693       11.3798325641        4.1868655535
  C        17.7413795853        0.5949106879       15.7150413269
  H        18.5099932609        0.5917135588       14.9328140892
  C         6.8936859813       11.3435245554        7.0041519996
  H         7.6697759668       11.3397472523        7.7791592472
  C         6.8963352745        0.5673308346       17.8469801570
  H         7.6665989454        0.5748883926       18.6277282578
  C        17.7587601069       11.4042882748       17.8580555826
  H        18.5347355133       11.3968807429       18.6331850592
  C        17.7377408799        0.5532282831        7.0245884331
  H        18.5063639251        0.5600300715        7.8069049681
  C        15.6388552863       15.7485213248       11.4223385902
  H        14.8564898643       14.9802488637       11.4293470059
  C        15.6418208769        4.8896908829        0.5351427039
  H        14.8737092218        4.1067839722        0.5279014712
  C         4.7952387734       15.7175695441        0.5504060623
  H         4.0246865744       14.9371856476        0.5433866714
  C         4.7760375327        4.8917210405       11.3552351764
  H         3.9992719562        4.1175827740       11.3591902936
  C         6.9745745968       15.7380572564       11.3765608867
  H         7.7597715056       14.9724696956       11.3749343177
  C         6.8516357443        4.8876946433        0.5310714871
  H         7.6193064816        4.1043984770        0.5326444187
  C        17.7415238059       15.7150447149        0.5949004560
  H        18.5101629450       14.9328395982        0.5917055697
  C        17.6764728216        4.9587136382       11.3688070679
  H        18.4562109023        4.1872765349       11.3796616311
  C        15.5484939247        7.0595390315       11.3483095480
  H        14.7652229865        7.8263969449       11.3327783215
  C        15.6464980404       17.8500916102        0.5999429139
  H        14.8782447655       18.6329310992        0.6036042234
  C         4.7577565686        7.0245823072        0.5283740264
  H         3.9906809793        7.8084229735        0.5266110564
  C         4.8291876481       17.8214741889       11.3815706631
  H         4.0422460606       18.5854772664       11.3837017706
  C         6.8934192674        7.0041810825       11.3436121903
  H         7.6694826777        7.7792158850       11.3398313972
  C         6.8964571363       17.8469657603        0.5673131034
  H         7.6667209502       18.6277141552        0.5748524759
  C        17.7377925273        7.0243417512        0.5532719013
  H        18.5064429809        7.8066312750        0.5600769818
  C        17.7587988065       17.8579795630       11.4042959220
  H        18.5347915758       18.6330911729       11.3968596894
 Kr        15.5159827120       11.3121263783       11.3154771160
