     409
 i =     176, E =    -5136.7141512869
  N         2.8788261547        5.2045735563       16.0256107447
  C         1.5611593034        5.4745750979       16.2961033094
  N        13.7015889719        5.2093689918        5.2094141300
  C        12.3838395245        5.4792983030        5.4793251548
  N        19.5622409950       17.5813827566       16.0256375454
  C        20.8799799015       17.3105577314       16.2949253123
  N         8.7425096559       17.5811881806        5.2058743713
  C        10.0601404965       17.3095597263        5.4747992137
  N        19.5636430125        5.2036469499        6.7595553433
  C        20.8812497425        5.4734174701        6.4890713974
  N         8.7423396792        5.2059186447       17.5811504479
  C        10.0599826073        5.4748185616       17.3095375681
  N         2.8787886979       17.5814174119        6.7611379145
  C         1.5612789179       17.3115093919        6.4905968131
  N        13.6988790270       17.5800825238       17.5801483664
  C        12.3812828405       17.3099191060       17.3099517100
  N        15.8526583138        3.0537328617        5.2076535310
  C        16.1227889444        1.7357386582        5.4766179151
  N        15.8539522593       13.8716287232       16.0243120916
  C        16.1248453595       12.5539534838       16.2937139846
  N        15.8525362711       19.7348823050       17.5803291123
  C        16.1223764920       21.0524829628       17.3097352640
  N        15.8605529725        8.9170275137        6.7665545343
  C        16.1322578952       10.2342531060        6.4977021827
  N         6.5894306909       19.7359036973        5.2052527197
  C         6.3194046045       21.0536918553        5.4752991576
  N         6.5885817155        8.9151409978       16.0252644964
  C         6.3184079845       10.2328266914       16.2953839628
  N         6.5893281111        3.0522326143       17.5816281899
  C         6.3199451840        1.7344992059       17.3108203961
  N         6.5878206738       13.8726390004        6.7616547601
  C         6.3184198400       12.5549587631        6.4909727664
  N         5.0334368026       16.0259734826        3.0521534231
  C         5.3042985753       16.2953129549        1.7344827806
  N         5.0324118926        5.2053208582       13.8724205203
  C         5.3030863641        5.4749978589       12.5547300003
  N        17.4081382417       16.0236067173       19.7347375450
  C        17.1377731078       16.2935551460       21.0524740546
  N        17.4163490007        5.2100929433        8.9165231785
  C        17.1476912903        5.4818351582       10.2342118148
  N         5.0322319945        6.7606787975       19.7364082790
  C         5.3029164806        6.4905015660       21.0539031475
  N         5.0327183471       17.5817539347        8.9154395553
  C         5.3029189846       17.3113186792       10.2329462336
  N        17.4078271526        6.7640005652        3.0527538053
  C        17.1380250115        6.4925742619        1.7351712064
  N        17.4101937257       17.5796292164       13.8718734523
  C        17.1408263575       17.3090298574       12.5541290012
  N         5.0340066763        3.0528967191        6.7610111236
  C         5.3038843582        1.7352689304        6.4905787462
  N         5.0328888097       13.8719965035       17.5811320985
  C         5.3028911808       12.5543095885       17.3110285189
  N        17.4077212878       19.7357700275        6.7613089138
  C        17.1379249218       21.0535432677        6.4911714365
  N        17.4093611429        8.9151002547       17.5814202448
  C        17.1403283042       10.2327169934       17.3100057008
  N         5.0332408457       19.7354851007       16.0252974048
  C         5.3041703418       21.0531115514       16.2949641440
  N         5.0331350395        8.9156858378        5.2054883638
  C         5.3035524726       10.2333884192        5.4750866621
  N        17.4075003313        3.0518475805       16.0237879359
  C        17.1374283271        1.7339923935       16.2936430010
  N        17.4141066267       13.8732786536        5.2090883354
  C        17.1469967372       12.5554455485        5.4816749130
  N         2.8790276484       16.0251017036       17.5811526958
  C         1.5613906129       16.2946662836       17.3103413064
  N        13.6991960787       16.0220531797        6.7596346180
  C        12.3814822211       16.2920663223        6.4891579053
  N        19.5620726363       16.0278934614        5.2035449285
  C        20.8798552680       16.2972374074        5.4740449081
  N         8.7417219859       16.0247947595       16.0247355421
  C        10.0596288277       16.2945834386       16.2945578416
  N        19.5622521683        6.7602300663       17.5826770408
  C        20.8799172622        6.4902560251       17.3123269137
  N         8.7438645998        6.7634475366        6.7633771988
  C        10.0618056504        6.4938964342        6.4938752708
  N         2.8800075460        6.7612764930        5.2051549965
  C         1.5624300441        6.4899377279        5.4741674278
  N        13.6990749918        6.7596061974       16.0221001259
  C        12.3813550749        6.4891410301       16.2920906435
  N        15.8519215704        5.2046259006       19.7364729209
  C        16.1224477440        5.4750218963       21.0541419702
  N        15.8524197975       16.0262910213        8.9150716452
  C        16.1242156858       16.2947288372       10.2326911079
  N        15.8527251106       17.5803873846        3.0515845816
  C        16.1224234747       17.3097479622        1.7339167390
  N        15.8595151170        6.7659867489       13.8726937019
  C        16.1320857265        6.4981006302       12.5551430406
  N         6.5910727476        5.2065325072        3.0532084205
  C         6.3202768924        5.4758166006        1.7353068886
  N         6.5883664364       16.0250607923       13.8720523860
  C         6.3183870690       16.2952299822       12.5542707057
  N         6.5896529380       17.5813001733       19.7352851280
  C         6.3200938713       17.3106276614       21.0529589457
  N         6.5886892933        6.7623395726        8.9161038679
  C         6.3188484759        6.4912855112       10.2335902946
  N        19.5623882912       17.5826468880        6.7602723707
  C        20.8800447192       17.3123155936        6.4902495552
  N         8.7424877915       17.5806238976       17.5805497984
  C        10.0600191813       17.3102436096       17.3102123146
  N         2.8800438196        5.2051981967        6.7612233016
  C         1.5624582888        5.4742215469        6.4898800979
  N        13.6990721234        5.2048377150       17.5796737872
  C        12.3814132979        5.4742568276       17.3086634929
  N         2.8789981518       17.5812112900       16.0250169596
  C         1.5613757390       17.3103769003       16.2946197898
  N        13.6992301945       17.5796188280        5.2048747178
  C        12.3815648106       17.3086380059        5.4742754884
  N        19.5619277565        5.2034969617       16.0279307353
  C        20.8797004640        5.4740499263       16.2972516688
  N         8.7446904022        5.2076733068        5.2075826340
  C        10.0623167744        5.4782348640        5.4782061988
  N         6.5896238211       19.7353720802       17.5812130460
  C         6.3200235739       21.0530426529       17.3105570287
  N         6.5887322786        8.9161477992        6.7622574890
  C         6.3188747161       10.2336437829        6.4912105034
  N         6.5910632498        3.0532848264        5.2063982816
  C         6.3203253316        1.7353801048        5.4756915676
  N         6.5883460164       13.8721202085       16.0249992263
  C         6.3183460568       12.5543432467       16.2951743406
  N        15.8525689552        3.0514939945       17.5804433855
  C        16.1222900492        1.7338283085       17.3098122159
  N        15.8596148606       13.8726514249        6.7660525268
  C        16.1321771923       12.5550988975        6.4981657817
  N        15.8520592142       19.7364001546        5.2047079698
  C        16.1225416777       21.0540699124        5.4751177515
  N        15.8523065985        8.9150163759       16.0263463289
  C        16.1241264715       10.2326331784       16.2947856150
  N        17.4075765772        6.7612315634       19.7358296469
  C        17.1378287496        6.4910825635       21.0536137256
  N        17.4094988183       17.5813538939        8.9151786968
  C        17.1404256709       17.3099395849       10.2327865650
  N         5.0340070810        6.7611281918        3.0528373932
  C         5.3038298587        6.4907008028        1.7352047995
  N         5.0329000134       17.5811848918       13.8719050048
  C         5.3029298276       17.3110785392       12.5542292519
  N        17.4076432735       16.0237197813        3.0519180547
  C        17.1375571072       16.2935711506        1.7340585653
  N        17.4139913238        5.2090036550       13.8733471084
  C        17.1468947125        5.4816031624       12.5555183543
  N         5.0332709264       16.0253996991       19.7354323100
  C         5.3042330806       16.2950405607       21.0530646840
  N         5.0330955290        5.2055588816        8.9156051218
  C         5.3035306310        5.4751620309       10.2333026227
  N        17.4080982905       19.7346855577       16.0236838171
  C        17.1376960495       21.0524127892       16.2936308662
  N        17.4163443574        8.9164552323        5.2101331288
  C        17.1477401733       10.2341463412        5.4818860584
  N         5.0332869002        3.0522139262       16.0258979291
  C         5.3041757261        1.7345359198       16.2952493908
  N         5.0325460782       13.8725012826        5.2052189931
  C         5.3031533646       12.5548057069        5.4749082035
  N        17.4078683891        3.0526948176        6.7640946238
  C        17.1380685159        1.7351052679        6.4926706090
  N        17.4101879812       13.8717982918       17.5796739772
  C        17.1407931976       12.5540556010       17.3090886017
  N         5.0323404400       19.7364668272        6.7605863451
  C         5.3030266707       21.0539524313        6.4903900242
  N         5.0326082101        8.9155186919       17.5816814665
  C         5.3028331657       10.2330253496       17.3112666759
  N        19.5636349558        6.7595118229        5.2036775928
  C        20.8812487854        6.4890786539        5.4734050434
  N         8.7420310588        6.7609462125       16.0244448994
  C        10.0598144791        6.4898614039       16.2932392479
  N         2.8786443938        6.7612422867       17.5813122327
  C         1.5611368138        6.4906731722       17.3114661431
  N        13.7009654369        6.7654752060        6.7654927383
  C        12.3833422965        6.4950143661        6.4950297140
  N         2.8789527654       16.0257291785        5.2044632089
  C         1.5612950057       16.2961513956        5.4744950787
  N        13.6989587568       16.0239616200       16.0240116613
  C        12.3812319608       16.2942000598       16.2942263197
  N        19.5622700210       16.0255829409       17.5814153498
  C        20.8799997477       16.2948990335       17.3105759362
  N         8.7421542896       16.0244740321        6.7609083711
  C        10.0599392595       16.2932595698        6.4898426652
  N         6.5895064960       17.5816835733        3.0521606619
  C         6.3200838647       17.3108732993        1.7344275181
  N         6.5876915056        6.7617535254       13.8725582944
  C         6.3183524002        6.4910572094       12.5548806238
  N         6.5892987199        5.2053518369       19.7358108146
  C         6.3192904559        5.4754067024       21.0536080397
  N         6.5886936707       16.0253322025        8.9150851214
  C         6.3184925891       16.2954370743       10.2327618015
  N        15.8525720235       17.5802493437       19.7349623629
  C        16.1224515402       17.3096615984       21.0525626274
  N        15.8605442756        6.7665144405        8.9170859084
  C        16.1322093505        6.4976499136       10.2343091836
  N        15.8526407369        5.2075349007        3.0538353355
  C        16.1227549170        5.4765077166        1.7358306966
  N        15.8539630723       16.0242617890       13.8716752495
  C        16.1248805347       16.2936568263       12.5540052555
 Zn        14.5598882293       14.7295824027       14.7296281994
 Br        13.2472331896       13.4145363980       13.4145682989
 Zn        14.5594448074        3.9143042296        3.9144459426
 Br        13.2432447005        2.6008369885        2.6009471094
 Zn         3.7394875290       14.7312877784        3.9101109187
 Br         2.4256098608       13.4170268914        2.5955134354
 Zn         3.7393853510        3.9102011497       14.7311918597
 Br         2.4255024051        2.5956232721       13.4169315899
 Zn         7.8829503355        8.0548476113       14.7306448910
 Br         9.1976087248        9.3693209532       13.4169321256
 Zn         7.8841998310       18.8749887717        3.9112949136
 Br         9.1981832121       20.1902804838        2.5977904473
 Zn        18.7052651202        8.0551530075        3.9108613307
 Br        20.0190101306        9.3694745685        2.5961942923
 Zn        18.7037629815       18.8743633676       14.7303076890
 Br        20.0177260851       20.1891423930       13.4162755407
 Zn         7.8830508439       14.7306880649        8.0548064927
 Br         9.1976803487       13.4169629215        9.3692907401
 Zn         7.8840168928        3.9113562241       18.8749430915
 Br         9.1979713785        2.5978297722       20.1902413968
 Zn        18.7037988814       14.7302163902       18.8743876429
 Br        20.0177539968       13.4161699956       20.1891688777
 Zn        18.7052956896        3.9108513081        8.0552074748
 Br        20.0190160220        2.5961901948        9.3695489179
 Zn        14.5644779505        8.0582322682        8.0582597674
 Br        13.2588980267        9.3768152094        9.3768397357
 Zn        14.5589625399       18.8742563989       18.8743412050
 Br        13.2442732005       20.1883653715       20.1884614231
 Zn         3.7388351636        8.0548696544       18.8754656729
 Br         2.4237041660        9.3691245691       20.1890551277
 Zn         3.7389394427       18.8755162829        8.0547967896
 Br         2.4238267514       20.1891317323        9.3690295996
 Zn        14.5604446566       14.7295222508        8.0551003997
 Br        13.2502428439       13.4128302686        9.3709378141
 Zn        14.5589434305        3.9102563888       18.8745455549
 Br        13.2436679989        2.5963998786       20.1883570510
 Zn         3.7393617953       14.7307416091       18.8750634337
 Br         2.4246188805       13.4172856121       20.1897058602
 Zn         3.7398284664        3.9106502690        8.0548819984
 Br         2.4252077631        2.5968324701        9.3692273789
 Zn         7.8835005740        8.0562143054        8.0561777964
 Br         9.1971150479        9.3709388474        9.3709140845
 Zn         7.8844998695       18.8746670575       18.8745874770
 Br         9.1980812926       20.1893276718       20.1892210969
 Zn        18.7031009810        8.0544886878       18.8755263687
 Br        20.0160336202        9.3691823580       20.1907971099
 Zn        18.7032426563       18.8754654864        8.0545434277
 Br        20.0161679761       20.1907135777        9.3692617290
 Zn        14.5603642311        8.0550670641       14.7295605570
 Br        13.2501736117        9.3709055773       13.4128575746
 Zn        14.5590766271       18.8744954810        3.9103154029
 Br        13.2438578276       20.1883258722        2.5964279797
 Zn         3.7398045785        8.0549596991        3.9106114098
 Br         2.4251991457        9.3693301490        2.5967882001
 Zn         3.7393464955       18.8750805349       14.7306400645
 Br         2.4246272122       20.1897339424       13.4171672766
 Zn         7.8827159130       14.7304746625       14.7304286329
 Br         9.1971000953       13.4162677745       13.4162376838
 Zn         7.8861554681        3.9133061929        3.9131679884
 Br         9.2001061711        2.5988779809        2.5987727569
 Zn        18.7042637772       14.7316886289        3.9105197216
 Br        20.0187922702       13.4172542708        2.5967194049
 Zn        18.7041244369        3.9104417801       14.7317870063
 Br        20.0186558872        2.5966322227       13.4173592379
 Zn         5.8064808714        5.9876319263       16.8082712404
 Zn        16.6268876967       16.8066934938       16.8068067992
 Zn        16.6306997245        5.9903167593        5.9903757047
 Zn         5.8066816104       16.8083570354        5.9875253164
 Zn         5.8086623899        5.9887039935        5.9886125383
 Zn        16.6269373342       16.8080953995        5.9872762031
 Zn         5.8068479385       16.8077079654       16.8076135817
 Zn        16.6267304908        5.9871814274       16.8081900965
  N         3.6253332938        5.9829383640       16.8035124294
  N        14.4479166400        5.9874675888        5.9875666306
  N        18.8153563679       16.8039440356       16.8039803416
  N         7.9953850159       16.8036684937        5.9840489134
  N        18.8168232802        5.9817843109        5.9819169689
  N         7.9952377378        5.9840677170       16.8036148007
  N         3.6254726305       16.8036484169        5.9829321765
  N        14.4454708758       16.8020763099       16.8021561612
  N        16.6302068599        3.8001976145        5.9865359074
  N        16.6315606722       14.6186123659       16.8024461166
  N        16.6304103395       18.9882097499       16.8022852834
  N        16.6373944538        8.1701497911        5.9875792650
  N         5.8108837206       18.9896183785        5.9832007718
  N         5.8108177955        8.1687405375       16.8038914215
  N         5.8109760892        3.7991494987       16.8040346321
  N         5.8101543373       14.6195220782        5.9834997916
  N         5.8111862568       16.8041304801        3.7990849381
  N         5.8100121220        5.9834872205       14.6194412480
  N        16.6304143678       16.8022116983       18.9882786511
  N        16.6374181022        5.9874928647        8.1702137198
  N         5.8107493952        5.9832051082       18.9895411990
  N         5.8109069039       16.8039641713        8.1686723805
  N        16.6301745924        5.9863787106        3.8002775212
  N        16.6315729685       16.8024167322       14.6186743145
  N         5.8128646622        3.7999932646        5.9842413913
  N         5.8107896859       14.6189787960       16.8033006168
  N        16.6296693445       18.9895403242        5.9830765843
  N        16.6299652416        8.1684905873       16.8047480208
  N         5.8111256731       18.9888796223       16.8034094863
  N         5.8111300829        8.1693508760        5.9839540863
  N        16.6301410375        3.7985760743       16.8024398164
  N        16.6351100192       14.6198959369        5.9861849706
  N         3.6255941162       16.8036228333       16.8035301545
  N        14.4457381069       16.8012791528        5.9826858726
  N        18.8153338914       16.8055775320        5.9818652391
  N         7.9951943775       16.8029000807       16.8028320695
  N        18.8151899806        5.9817296668       16.8056202396
  N         7.9973545368        5.9853398100        5.9853050514
  N         3.6266781482        5.9836359175        5.9836585895
  N        14.4455958025        5.9826150685       16.8013232240
  N        16.6295034555        5.9829616306       18.9896082739
  N        16.6301176562       16.8046968679        8.1685599157
  N        16.6302935626       16.8023833292        3.7986580438
  N        16.6349936906        5.9860671180       14.6199515906
  N         5.8128894224        5.9842898499        3.7999277142
  N         5.8107789610       16.8033592833       14.6188959876
  N         5.8111536288       16.8035310678       18.9888083677
  N         5.8111104207        5.9839171544        8.1692857882
  C        11.2202414975       15.7447348163       15.7447357831
  H        11.2199624049       14.9692241296       14.9692241708
  C        11.2235394118        4.9291382407        4.9291378927
  H        11.2244156321        4.1536227069        4.1536154073
  C         0.4004024587       15.7472213949        4.9243961235
  H         0.4001353467       14.9719812292        4.1486518471
  C         0.4002660561        4.9244414909       15.7471995546
  H         0.3999956348        4.1486830300       14.9719300804
  C        11.2204954536        7.0385727958       15.7424319854
  H        11.2202253755        7.8137503390       14.9665811711
  C        11.2209252426       17.8589591585        4.9251200975
  H        11.2210869187       18.6351837277        4.1503377253
  C         0.4017909999        7.0390965692        4.9239637272
  H         0.4017011166        7.8148148527        4.1487051797
  C         0.4006239982       17.8599798612       15.7449484410
  H         0.4006181742       18.6356089087       14.9695553823
  C        11.2206030760       15.7424295438        7.0385701314
  H        11.2203062587       14.9665698885        7.8137511726
  C        11.2207488516        4.9251202661       17.8589623694
  H        11.2208826794        4.1503379394       18.6351916945
  C         0.4006726520       15.7449561396       17.8599749366
  H         0.4007117068       14.9695660789       18.6356024551
  C         0.4018263145        4.9239923846        7.0390698922
  H         0.4017741236        4.1486923957        7.8148312350
  C        11.2220753197        7.0441119303        7.0441078096
  H        11.2211003963        7.8196260841        7.8196135246
  C        11.2207688898       17.8597497813       17.8597512366
  H        11.2210246904       18.6352661935       18.6352665003
  C         0.4005703246        7.0404292544       17.8613020708
  H         0.4008424776        7.8162902171       18.6364588299
  C         0.4007148346       17.8613223375        7.0403860085
  H         0.4009832355       18.6365101359        7.8162648518
  C        15.5749132783       11.3932290644       15.7444277527
  H        14.7991554315       11.3930466199       14.9691616533
  C        15.5733024132        0.5753128873        4.9259869912
  H        14.7979259556        0.5759178127        4.1504020160
  C         4.7539740620       11.3939818145        4.9250513870
  H         3.9785947686       11.3937391092        4.1494279450
  C         4.7545728552        0.5738952414       15.7453997772
  H         3.9787923346        0.5740110932       14.9701198213
  C        15.5838205108       11.3945112102        7.0489344030
  H        14.8096661596       11.3939581988        7.8257790433
  C        15.5728169883        0.5731392325       17.8595909597
  H        14.7975919534        0.5730394627       18.6354037791
  C         4.7532393911       11.3937686468       17.8608723949
  H         3.9777757044       11.3938181175       18.6364415715
  C         4.7533210636        0.5747839205        7.0396547009
  H         3.9772112305        0.5750284373        7.8145911913
  C         6.8678948669       11.3935837304       15.7454996340
  H         7.6432512705       11.3934721038       14.9698296779
  C         6.8698049101        0.5744568189        4.9262059787
  H         7.6458294817        0.5741907352        4.1512213741
  C        17.6973680652       11.3949512352        4.9323245969
  H        18.4721296369       11.3951145068        4.1561024664
  C        17.6868814768        0.5732945654       15.7436601169
  H        18.4620875891        0.5733075127       14.9678699595
  C         6.8681310456       11.3944793738        7.0409343862
  H         7.6431411082       11.3946665176        7.8169811135
  C         6.8697870232        0.5737556861       17.8601776775
  H         7.6451448940        0.5736414103       18.6358062424
  C        17.6906946802       11.3935072590       17.8587918139
  H        18.4662909752       11.3936198282       18.6342122241
  C        17.6874580222        0.5739674936        7.0416773285
  H        18.4625917927        0.5733035689        7.8176092246
  C        15.5749765358       15.7443738220       11.3932709149
  H        14.7992241517       14.9691158926       11.3930707791
  C        15.5732410163        4.9258774326        0.5754076911
  H        14.7978488664        4.1502758533        0.5760268822
  C         4.7546633045       15.7454722019        0.5738504429
  H         3.9788848380       14.9702076430        0.5739908257
  C         4.7539261288        4.9251340432       11.3938955545
  H         3.9785076600        4.1494973573       11.3936396920
  C         6.8679570922       15.7455567400       11.3935274347
  H         7.6433129170       14.9698956112       11.3934291053
  C         6.8697332870        4.9263153238        0.5743671209
  H         7.6457811584        4.1513147706        0.5740817126
  C        17.6869869283       15.7435837699        0.5733488924
  H        18.4621916157       14.9677914653        0.5733406520
  C        17.6972860423        4.9322614768       11.3950247785
  H        18.4720534442        4.1560273388       11.3952036603
  C        15.5837543897        7.0488739970       11.3945573055
  H        14.8096187683        7.8257087614       11.3939902261
  C        15.5729260601       17.8595249234        0.5732331263
  H        14.7977015706       18.6353460177        0.5731551509
  C         4.7532378351        7.0397781772        0.5747368811
  H         3.9771568254        7.8147013683        0.5749984325
  C         4.7533051541       17.8609204765       11.3936759784
  H         3.9778434877       18.6364986864       11.3937132828
  C         6.8680775788        7.0410073951       11.3944195111
  H         7.6430502736        7.8170334094       11.3946196546
  C         6.8699017798       17.8602348719        0.5736693691
  H         7.6452826026       18.6358726577        0.5735304069
  C        17.6873879800        7.0415862363        0.5740227036
  H        18.4625071367        7.8175103165        0.5733440978
  C        17.6907600388       17.8587220994       11.3935924161
  H        18.4663649364       18.6341402568       11.3937244625
 Kr        17.7077136503       10.1416407753       10.1417338932
