     409
 i =     176, E =    -5136.7117132686
  N         3.0159140687        5.2037524449       16.0269279137
  C         1.6975550219        5.4734909631       16.2953025940
  N        13.8259657031        5.2018419742        5.2018454601
  C        12.5086750651        5.4734859881        5.4734885192
  N        19.7017661693       17.5765383426       16.0199790447
  C        21.0196542914       17.3080793359       16.2922722588
  N         8.8766858514       17.5808771471        5.2063810931
  C        10.1946072351       17.3083635394        5.4743408304
  N        19.6899228039        5.1997015862        6.7559927294
  C        21.0076328349        5.4723551945        6.4881095472
  N         8.8766831126        5.2063797515       17.5808739439
  C        10.1946044927        5.4743389321       17.3083612920
  N         3.0131832914       17.5816670031        6.7615243823
  C         1.6956861013       17.3103724743        6.4899537489
  N        13.8412702280       17.5764879258       17.5764877633
  C        12.5231390030       17.3070021654       17.3070008193
  N        15.9785755066        3.0458240222        5.1993140718
  C        16.2496715078        1.7282581494        5.4693978636
  N        15.9936263827       13.8656374401       16.0185992010
  C        16.2624683183       12.5480169737       16.2891329984
  N        15.9945144951       19.7292674748       17.5757368773
  C        16.2626223466       21.0469068055       17.3046969383
  N        15.9842724551        8.9097265424        6.7559134007
  C        16.2544374058       10.2272312755        6.4854261419
  N         6.7217834835       19.7379387098        5.2073309400
  C         6.4495885782       21.0553333381        5.4766584894
  N         6.7235243746        8.9159031119       16.0254412135
  C         6.4536972695       10.2335828371       16.2948960711
  N         6.7236964159        3.0533529038       17.5844724568
  C         6.4559118678        1.7354379253       17.3136065272
  N         6.7161909292       13.8719187129        6.7668456130
  C         6.4426309031       12.5545946207        6.4992899910
  N         5.1710624033       16.0264989561        3.0522296735
  C         5.4418156904       16.2965168231        1.7347430935
  N         5.1640277643        5.2084265561       13.8734593560
  C         5.4290006480        5.4817479955       12.5555131075
  N        17.5475046774       16.0177383030       19.7300395069
  C        17.2768204958       16.2876524414       21.0474930439
  N        17.5372974674        5.1979093474        8.9089244292
  C        17.2686200181        5.4683527756       10.2266454017
  N         5.1670961365        6.7640523357       19.7364690713
  C         5.4346540728        6.4930672812       21.0543839244
  N         5.1686186715       17.5820212649        8.9167609842
  C         5.4387265735       17.3112853996       10.2341965834
  N        17.5346796129        6.7549470077        3.0466870955
  C        17.2653631266        6.4850819649        1.7290396072
  N        17.5477205629       17.5757204255       13.8650386385
  C        17.2771243683       17.3057648672       12.5475921334
  N         5.1614768591        3.0531803920        6.7639695940
  C         5.4316655602        1.7355854201        6.4931698867
  N         5.1726924138       13.8728253670       17.5820804212
  C         5.4406681196       12.5550402601       17.3112336336
  N        17.5406141411       19.7309600963        6.7550265798
  C        17.2686123834       21.0481846158        6.4852469072
  N        17.5430309930        8.9089772508       17.5776893935
  C        17.2747930458       10.2266754883       17.3066928608
  N         5.1751708377       19.7361273621       16.0256082219
  C         5.4440516020       21.0538172239       16.2960871150
  N         5.1575233366        8.9169691765        5.2096456824
  C         5.4257646955       10.2344859885        5.4823354919
  N        17.5433277350        3.0462274175       16.0172736943
  C        17.2745480182        1.7284571249       16.2874243969
  N        17.5426336737       13.8649574726        5.1995368361
  C        17.2712876560       12.5475419484        5.4690616649
  N         3.0199434537       16.0269811594       17.5832714482
  C         1.7019982134       16.2956078298       17.3113759893
  N        13.8350990221       16.0190839825        6.7562860039
  C        12.5170837114       16.2899982645        6.4869576356
  N        19.6977945409       16.0202277797        5.2002008894
  C        21.0152803064       16.2919406200        5.4714929114
  N         8.8809173005       16.0239153175       16.0239154903
  C        10.1992953248       16.2932337669       16.2932329866
  N        19.6953197060        6.7560979349       17.5772926793
  C        21.0135440144        6.4871613482       17.3078516568
  N         8.8711049598        6.7630074866        6.7630056026
  C        10.1886190838        6.4917421918        6.4917414196
  N         3.0071284844        6.7626771116        5.2066791479
  C         1.6893213492        6.4913589609        5.4756516659
  N        13.8351000642        6.7562826850       16.0190892109
  C        12.5170799102        6.4869558327       16.2899994891
  N        15.9865338226        5.1980506184       19.7290898905
  C        16.2536438546        5.4689649174       21.0470651466
  N        15.9899108945       16.0198164049        8.9096570474
  C        16.2604749234       16.2897453667       10.2271293240
  N        15.9892335221       17.5743804366        3.0451835253
  C        16.2599240008       17.3041032112        1.7277815751
  N        15.9887890758        6.7568189609       13.8659041481
  C        16.2568061946        6.4858488835       12.5481648148
  N         6.7154492488        5.2068604841        3.0542731028
  C         6.4463342216        5.4765898264        1.7364316484
  N         6.7259199835       16.0247216697       13.8719785668
  C         6.4550716451       16.2944588419       12.5544703478
  N         6.7291551212       17.5829578739       19.7368865748
  C         6.4586119833       17.3128610849       21.0544094193
  N         6.7118423653        6.7669994669        8.9164167342
  C         6.4401169225        6.4993651164       10.2339221028
  N        19.6953219351       17.5772912355        6.7561031427
  C        21.0135445337       17.3078492196        6.4871633092
  N         8.8832348073       17.5803558310       17.5803534828
  C        10.2008227718       17.3090409500       17.3090387029
  N         3.0071283752        5.2066759530        6.7626754259
  C         1.6893215991        5.4756490090        6.4913582889
  N        13.8346877195        5.1995893444       17.5752007163
  C        12.5168555512        5.4712646568       17.3058777954
  N         3.0199425655       17.5832719114       16.0269824443
  C         1.7019980635       17.3113758260       16.2956090097
  N        13.8346891156       17.5752001736        5.1995882289
  C        12.5168601617       17.3058769560        5.4712662734
  N        19.6977897481        5.2002009429       16.0202326301
  C        21.0152805047        5.4714915054       16.2919423072
  N         8.8687398383        5.2067647387        5.2067662964
  C        10.1868506469        5.4760017981        5.4760036322
  N         6.7291525277       19.7368872742       17.5829602379
  C         6.4586093454       21.0544103378       17.3128629386
  N         6.7118409415        8.9164178132        6.7670007943
  C         6.4401159143       10.2339225574        6.4993670711
  N         6.7154487872        3.0542738935        5.2068591117
  C         6.4463349595        1.7364317378        5.4765892162
  N         6.7259190760       13.8719778409       16.0247204730
  C         6.4550703477       12.5544695465       16.2944574745
  N        15.9892322402        3.0451823475       17.5743827744
  C        16.2599234989        1.7277777384       17.3041096636
  N        15.9887882396       13.8659007764        6.7568227910
  C        16.2568030694       12.5481661956        6.4858462333
  N        15.9865339005       19.7290885397        5.1980521642
  C        16.2536438835       21.0470602792        5.4689701649
  N        15.9899174842        8.9096509745       16.0198165304
  C        16.2604828852       10.2271291139       16.2897401723
  N        17.5406114791        6.7550192436       19.7309601686
  C        17.2686136017        6.4852407473       21.0481888535
  N        17.5430302966       17.5776935166        8.9089826305
  C        17.2747864622       17.3066982240       10.2266763603
  N         5.1614735267        6.7639666841        3.0531818317
  C         5.4316627865        6.4931669945        1.7355850346
  N         5.1726919400       17.5820803382       13.8728262892
  C         5.4406681977       17.3112343026       12.5550409650
  N        17.5433327452       16.0172669925        3.0462259390
  C        17.2745481891       16.2874178932        1.7284606077
  N        17.5426324674        5.1995406128       13.8649607357
  C        17.2712923872        5.4690664542       12.5475409914
  N         5.1751705819       16.0256086712       19.7361264716
  C         5.4440520272       16.2960871734       21.0538167290
  N         5.1575228171        5.2096464339        8.9169686418
  C         5.4257648541        5.4823352562       10.2344850212
  N        17.5475067403       19.7300382371       16.0177421479
  C        17.2768225666       21.0474906276       16.2876585642
  N        17.5372925504        8.9089227713        5.1979059142
  C        17.2686136290       10.2266452390        5.4683466722
  N         5.1710617395        3.0522309159       16.0264985637
  C         5.4418144928        1.7347434464       16.2965166318
  N         5.1640283704       13.8734598838        5.2084259620
  C         5.4290008026       12.5555145210        5.4817484592
  N        17.5346774746        3.0466853074        6.7549508562
  C        17.2653610166        1.7290367593        6.4850875360
  N        17.5477235663       13.8650358458       17.5757194635
  C        17.2771304638       12.5475896367       17.3057596643
  N         5.1670980315       19.7364710828        6.7640542220
  C         5.4346561997       21.0543830167        6.4930693912
  N         5.1686187096        8.9167594781       17.5820201027
  C         5.4387260916       10.2341962015       17.3112843929
  N        19.6899224959        6.7559944547        5.1997052365
  C        21.0076326754        6.4881103457        5.4723579583
  N         8.8767288443        6.7607164896       16.0224565449
  C        10.1946969147        6.4891185441       16.2915827130
  N         3.0131807109        6.7615246966       17.5816667011
  C         1.6956846453        6.4899534605       17.3103730041
  N        13.8292356747        6.7580131420        6.7580126938
  C        12.5107245758        6.4892326080        6.4892323596
  N         3.0159153669       16.0269285880        5.2037512510
  C         1.6975565998       16.2953024953        5.4734905986
  N        13.8393677576       16.0199931696       16.0199943060
  C        12.5217725151       16.2912204065       16.2912199864
  N        19.7017660892       16.0199777731       17.5765397663
  C        21.0196546937       16.2922709486       17.3080803732
  N         8.8767308551       16.0224581214        6.7607175994
  C        10.1946987103       16.2915839952        6.4891205177
  N         6.7237008823       17.5844707488        3.0533512193
  C         6.4559152744       17.3136047824        1.7354373571
  N         6.7161906090        6.7668438021       13.8719190278
  C         6.4426313063        6.4992880314       12.5545931947
  N         6.7217840310        5.2073339801       19.7379383181
  C         6.4495883898        5.4766597013       21.0553335292
  N         6.7235269034       16.0254431309        8.9159047104
  C         6.4536991263       16.2948979754       10.2335832084
  N        15.9945124119       17.5757317491       19.7292693080
  C        16.2626198004       17.3046907832       21.0469101825
  N        15.9842746557        6.7559150711        8.9097268696
  C        16.2544426197        6.4854301253       10.2272313671
  N        15.9785757223        5.1993112947        3.0458264530
  C        16.2496728682        5.4693935649        1.7282618566
  N        15.9936226019       16.0186009188       13.8656392434
  C        16.2624606120       16.2891376639       12.5480192020
 Zn        14.7029839827       14.7252386506       14.7252404113
 Br        13.3844792070       13.4127427641       13.4127450237
 Zn        14.6838819667        3.9062589450        3.9062613728
 Br        13.3680808793        2.5928426503        2.5928450054
 Zn         3.8801930724       14.7328252526        3.9091439756
 Br         2.5622318669       13.4203877071        2.5959147136
 Zn         3.8801922209        3.9091442998       14.7328231118
 Br         2.5622282742        2.5959152505       13.4203877281
 Zn         8.0124879003        8.0554716078       14.7290479729
 Br         9.3274940718        9.3693208404       13.4145880314
 Zn         8.0135747406       18.8771558531        3.9142256808
 Br         9.3299543747       20.1913624154        2.6011069257
 Zn        18.8281596878        8.0491426632        3.9039737137
 Br        20.1442953340        9.3617109742        2.5896849609
 Zn        18.8378036864       18.8702470338       14.7243177628
 Br        20.1550027041       20.1828050410       13.4105039089
 Zn         8.0124885539       14.7290502935        8.0554715314
 Br         9.3274941362       13.4145899397        9.3693205636
 Zn         8.0135732680        3.9142267411       18.8771561497
 Br         9.3299530584        2.6011072780       20.1913622866
 Zn        18.8378040365       14.7243159135       18.8702482492
 Br        20.1550055532       13.4105029334       20.1828046615
 Zn        18.8281600583        3.9039725658        8.0491433831
 Br        20.1442948433        2.5896846736        9.3617135333
 Zn        14.6945114147        8.0516552795        8.0516552331
 Br        13.3787616330        9.3655538758        9.3655552377
 Zn        14.7054466671       18.8707061508       18.8707081795
 Br        13.3896302001       20.1845716836       20.1845751490
 Zn         3.8763166154        8.0564781954       18.8747227380
 Br         2.5604236226        9.3713865208       20.1875661614
 Zn         3.8763182625       18.8747230375        8.0564780579
 Br         2.5604225536       20.1875645813        9.3713852030
 Zn        14.6994645673       14.7254440212        8.0513495748
 Br        13.3820418886       13.4132978536        9.3653713381
 Zn        14.6980692596        3.9036188285       18.8686344761
 Br        13.3807846408        2.5897456503       20.1810269204
 Zn         3.8840953008       14.7319709606       18.8761652560
 Br         2.5672742714       13.4196802725       20.1906971006
 Zn         3.8681919183        3.9122064426        8.0563735275
 Br         2.5534607246        2.5989896640        9.3716633174
 Zn         8.0079032564        8.0565288036        8.0565285346
 Br         9.3217318370        9.3711961050        9.3711969385
 Zn         8.0204047881       18.8751144005       18.8751138738
 Br         9.3384028989       20.1879548797       20.1879529452
 Zn        18.8321090936        8.0493576416       18.8727651107
 Br        20.1487198316        9.3622160978       20.1866235443
 Zn        18.8321093930       18.8727621347        8.0493591308
 Br        20.1487227947       20.1866205277        9.3622197668
 Zn        14.6994623759        8.0513491802       14.7254440455
 Br        13.3820403423        9.3653706642       13.4133017699
 Zn        14.6980758721       18.8686305563        3.9036222497
 Br        13.3807879192       20.1810232617        2.5897476704
 Zn         3.8681903849        8.0563732695        3.9122067976
 Br         2.5534596728        9.3716624523        2.5989890356
 Zn         3.8840948665       18.8761653624       14.7319722979
 Br         2.5672737671       20.1906973877       13.4196820588
 Zn         8.0156966423       14.7296319162       14.7296321123
 Br         9.3308257555       13.4154734941       13.4154738325
 Zn         8.0069929455        3.9124308458        3.9124288926
 Br         9.3218971202        2.5982945437        2.5982961515
 Zn        18.8345438367       14.7242430468        3.9063764786
 Br        20.1511735134       13.4104275890        2.5934687747
 Zn        18.8345420311        3.9063737605       14.7242434890
 Br        20.1511722724        2.5934670802       13.4104324344
 Zn         5.9473562998        5.9891517582       16.8089067291
 Zn        16.7713186385       16.7963674710       16.7963743002
 Zn        16.7622136745        5.9760053830        5.9760091180
 Zn         5.9473571651       16.8089072893        5.9891513713
 Zn         5.9416261571        5.9899265195        5.9899259765
 Zn        16.7675737634       16.7970116501        5.9765251197
 Zn         5.9513648512       16.8084498890       16.8084496058
 Zn        16.7675711911        5.9765223220       16.7970181264
  N         3.7610944505        5.9831238270       16.8050166014
  N        14.5742600985        5.9791831497        5.9791848619
  N        18.9552239418       16.7972261750       16.7972286994
  N         8.1302754013       16.8027412854        5.9845986109
  N        18.9434568005        5.9765263413        5.9765274705
  N         8.1302742999        5.9845980277       16.8027384709
  N         3.7610967947       16.8050187552        5.9831239878
  N        14.5869420982       16.7978156042       16.7978168823
  N        16.7563562107        3.7929092153        5.9770999490
  N        16.7710905938       14.6122679825       16.7970195719
  N        16.7716475175       18.9825938580       16.7970640017
  N        16.7604785477        8.1624346106        5.9769381100
  N         5.9457184260       18.9905761033        5.9863088114
  N         5.9460878661        8.1697570202       16.8041192142
  N         5.9465932775        3.7998180392       16.8057886430
  N         5.9425531363       14.6197341176        5.9859459844
  N         5.9465955095       16.8057876488        3.7998181900
  N         5.9425528683        5.9859463374       14.6197322260
  N        16.7716453978       16.7970609603       18.9825968313
  N        16.7604800472        5.9769395653        8.1624353976
  N         5.9457164528        5.9863114839       18.9905772994
  N         5.9460890731       16.8041208865        8.1697567883
  N        16.7563571728        5.9770978685        3.7929121846
  N        16.7710897354       16.7970189234       14.6122712324
  N         5.9383369595        3.8007135072        5.9857183190
  N         5.9500971761       14.6194446579       16.8038172506
  N        16.7648707968       18.9830696700        5.9761282615
  N        16.7659194270        8.1623803278       16.7990267097
  N         5.9525067025       18.9898701168       16.8042558538
  N         5.9359024378        8.1701498254        5.9869577384
  N        16.7658422994        3.7925265405       16.7958623959
  N        16.7665608428       14.6123066880        5.9785978054
  N         3.7664572891       16.8060029281       16.8060036059
  N        14.5814736557       16.7967560081        5.9773435236
  N        18.9500806394       16.7982448006        5.9775881204
  N         8.1356459480       16.8026679646       16.8026671761
  N        18.9500846337        5.9775833597       16.7982468878
  N         8.1234079167        5.9853848821        5.9853843132
  N         3.7538479826        5.9853242009        5.9853244980
  N        14.5814650669        5.9773433112       16.7967593142
  N        16.7648685533        5.9761247783       18.9830786985
  N        16.7659190727       16.7990276220        8.1623764769
  N        16.7658457814       16.7958601774        3.7925342169
  N        16.7665576368        5.9785962438       14.6123017683
  N         5.9383343147        5.9857192181        3.8007131179
  N         5.9500968619       16.8038178349       14.6194455188
  N         5.9525074763       16.8042547187       18.9898693616
  N         5.9359033728        5.9869584884        8.1701492922
  C        11.3595902442       15.7428172047       15.7428168518
  H        11.3582407974       14.9673143650       14.9673146037
  C        11.3466297173        4.9252088035        4.9252125769
  H        11.3447542821        4.1496928427        4.1496987049
  C         0.5376605885       15.7442525184        4.9229627129
  H         0.5396884106       14.9689023478        4.1473184707
  C         0.5376585860        4.9229626305       15.7442528419
  H         0.5396872274        4.1473193608       14.9689022356
  C        11.3560061046        7.0371116121       15.7410182851
  H        11.3561973371        7.8123897265       14.9652972016
  C        11.3555953132       17.8567640501        4.9235713662
  H        11.3553247373       18.6327475560        4.1485404947
  C         0.5285214615        7.0395704433        4.9246651414
  H         0.5285148778        7.8152357507        4.1493190508
  C         0.5408692610       17.8592285373       15.7445909329
  H         0.5409508965       18.6348597840       14.9692118490
  C        11.3560073136       15.7410187333        7.0371133852
  H        11.3561985352       14.9652974420        7.8123918445
  C        11.3555919325        4.9235691176       17.8567633551
  H        11.3553191467        4.1485385741       18.6327465476
  C         0.5408697793       15.7445892401       17.8592287708
  H         0.5409514992       14.9692094387       18.6348595884
  C         0.5285216033        4.9246605693        7.0395677512
  H         0.5285150503        4.1493120743        7.8152305870
  C        11.3508327205        7.0399983327        7.0399961985
  H        11.3525852718        7.8154956859        7.8154913112
  C        11.3628841157       17.8574335769       17.8574308915
  H        11.3643415206       18.6329390635       18.6329356103
  C         0.5334353790        7.0382293719       17.8583687988
  H         0.5314107789        7.8139624171       18.6336447176
  C         0.5334371703       17.8583670008        7.0382308541
  H         0.5314120607       18.6336429314        7.8139650953
  C        15.7122229164       11.3878714927       15.7390279743
  H        14.9372914278       11.3883933122       14.9629066064
  C        15.7018715674        0.5668631704        4.9194050378
  H        14.9265402473        0.5654672755        4.1437002718
  C         4.8777633970       11.3956277582        4.9320175305
  H         4.1037148116       11.3965757082        4.1550322540
  C         4.8937297598        0.5738882732       15.7458790907
  H         4.1187342381        0.5731062054       14.9698178936
  C        15.7063205901       11.3881291341        7.0359962390
  H        14.9316185134       11.3888562603        7.8123490990
  C        15.7119481178        0.5668745117       17.8547228057
  H        14.9370843124        0.5660252652       18.6309102714
  C         4.8901937504       11.3950965180       17.8614264826
  H         4.1153537614       11.3958021892       18.6376235357
  C         4.8836638033        0.5743009835        7.0431548739
  H         4.1088521149        0.5730342409        7.8193861937
  C         7.0035965215       11.3936317462       15.7442203333
  H         7.7786516823       11.3929406185       14.9682271708
  C         6.9970906102        0.5766187899        4.9262571413
  H         7.7721852103        0.5777566243        4.1503202544
  C        17.8190487012       11.3866313762        4.9181931671
  H        18.5938986775       11.3859573591        4.1420185866
  C        17.8248773509        0.5684542261       15.7370822081
  H        18.5997586687        0.5692593155       14.9609158192
  C         6.9894827306       11.3937273586        7.0509078762
  H         7.7643724661       11.3927856687        7.8270421927
  C         7.0064993854        0.5753988380       17.8636110192
  H         7.7812634687        0.5761494024       18.6398762017
  C        17.8253661049       11.3867881175       17.8564740326
  H        18.6004220244       11.3862805147       18.6324664385
  C        17.8165661830        0.5693841418        7.0351457950
  H        18.5921922500        0.5706332018        7.8105604393
  C        15.7122138478       15.7390349708       11.3878743413
  H        14.9372814237       14.9629146122       11.3883954060
  C        15.7018720838        4.9194003248        0.5668663204
  H        14.9265404644        4.1436965285        0.5654722875
  C         4.8937292499       15.7458806076        0.5738873761
  H         4.1187317408       14.9698212553        0.5731057475
  C         4.8777627683        4.9320173838       11.3956269882
  H         4.1037133502        4.1550328122       11.3965748015
  C         7.0035987133       15.7442228014       11.3936329502
  H         7.7786547812       14.9682305615       11.3929417198
  C         6.9970918803        4.9262592354        0.5766181621
  H         7.7721887165        4.1503245327        0.5777560875
  C        17.8248757728       15.7370751647        0.5684547694
  H        18.5997568980       14.9609081669        0.5692595299
  C        17.8190565946        4.9182007464       11.3866328642
  H        18.5939081772        4.1420284085       11.3859578155
  C        15.7063247283        7.0359998477       11.3881299572
  H        14.9316218308        7.8123515548       11.3888555135
  C        15.7119463757       17.8547159887        0.5668772026
  H        14.9370819195       18.6309035172        0.5660306490
  C         4.8836591587        7.0431508692        0.5743007860
  H         4.1088447819        7.8193801769        0.5730339600
  C         4.8901936090       17.8614267080       11.3950976463
  H         4.1153528153       18.6376229675       11.3958035425
  C         6.9894845780        7.0509052858       11.3937271845
  H         7.7643755115        7.8270387458       11.3927855111
  C         7.0065036234       17.8636078980        0.5753974282
  H         7.7812693849       18.6398713654        0.5761476283
  C        17.8165690159        7.0351388850        0.5693855909
  H        18.5921958654        7.8105521951        0.5706347606
  C        17.8253585082       17.8564798705       11.3867915151
  H        18.6004145331       18.6324723305       11.3862829308
 Kr         3.6564343154       10.4337465469       10.4337463163
