     409
 i =     150, E =    -5183.7418499742
  N         2.8224314275        5.1982197329       15.9963620485
  C         1.5053511807        5.4686420192       16.2667885770
  N        13.6286895673        5.1148490465        5.1148465279
  C        12.3123620678        5.3914033772        5.3914011721
  N        19.5187253169       17.5573004595       16.0021589240
  C        20.8360756114       17.2877871648       16.2719177231
  N         8.6726329179       17.5941515221        5.1617224709
  C         9.9952166547       17.3355677533        5.4181637695
  N        19.5010516948        5.2005965187        6.7564153847
  C        20.8185401152        5.4719337730        6.4878271249
  N         8.6726368023        5.1617211499       17.5941549715
  C         9.9952191122        5.4181647295       17.3355684997
  N         2.8238880834       17.5482509128        6.7574794302
  C         1.5063775328       17.2809796336        6.4863851805
  N        13.6441739955       17.6237947030       17.6238008547
  C        12.3277095031       17.3485808320       17.3485837077
  N        15.8287732383        3.0290332656        5.1755826237
  C        16.0954338559        1.7142296931        5.4537690613
  N        15.7878454915       13.8572064803       16.0184747241
  C        16.0569341031       12.5370356017       16.2848674420
  N        15.8373248141       19.7207293919       17.5723694934
  C        16.1017874693       21.0361227765       17.2938450027
  N        15.7705612052        8.8922950515        6.7289440152
  C        16.0416444765       10.2133906095        6.4697826342
  N         6.5003717188       19.7201896264        5.1904536901
  C         6.2307184138       21.0360267629        5.4642356206
  N         6.5591423016        8.8940712301       16.0089268206
  C         6.2911433378       10.2137871455       16.2763966384
  N         6.5052280380        3.0327106797       17.5746986547
  C         6.2391948528        1.7160184424       17.2999422362
  N         6.5526327527       13.8549502082        6.7326861832
  C         6.2800653801       12.5358824849        6.4685388900
  N         4.9655348187       16.0035824772        3.0337705397
  C         5.2333187019       16.2740987165        1.7157998119
  N         4.9823519716        5.1909100537       13.8518264655
  C         5.2549070032        5.4616091680       12.5351184941
  N        17.3740148606       15.9977122981       19.7175581707
  C        17.1050514395       16.2653456983       21.0355675227
  N        17.3423668279        5.1904269209        8.9006775967
  C        17.0693973734        5.4655902350       10.2167764893
  N         4.9608389546        6.7612755415       19.7150781482
  C         5.2250261613        6.4902233267       21.0340635155
  N         4.9885476013       17.5498559841        8.8999256964
  C         5.2657979524       17.2830576282       10.2161446956
  N        17.3628836504        6.7528206689        3.0347855738
  C        17.0971411339        6.4836268409        1.7165402918
  N        17.3599850792       17.5567321871       13.8542289982
  C        17.0850841807       17.2888000646       12.5372515954
  N         4.9551712863        3.0338367725        6.7557606793
  C         5.2226334713        1.7153099391        6.4870858213
  N         4.9949781735       13.8528286895       17.5552331777
  C         5.2683408298       12.5360219706       17.2860363201
  N        17.3682884683       19.7202039836        6.7500210467
  C        17.0993550278       21.0377865601        6.4818403158
  N        17.3593407545        8.9004452168       17.5704594801
  C        17.0848298602       10.2160516697       17.2955274572
  N         4.9738636140       19.7161833713       15.9996450085
  C         5.2371134678       21.0349809873       16.2717992257
  N         4.9792565475        8.8987820361        5.1946915918
  C         5.2539630998       10.2151034994        5.4638736835
  N        17.3680915064        3.0336510918       15.9973220667
  C        17.1022190406        1.7149617016       16.2648710271
  N        17.3459862603       13.8556784492        5.1987186725
  C        17.0712871355       12.5387887360        5.4695588043
  N         2.8327988925       15.9982544027       17.5530270959
  C         1.5153988865       16.2700367962       17.2858772665
  N        13.6516993325       16.0753201390        6.6709842126
  C        12.3306039776       16.3371679831        6.4104505892
  N        19.5080369431       16.0025124968        5.1979229082
  C        20.8257594216       16.2699040136        5.4684162613
  N         8.7046318524       16.0340010340       16.0339951309
  C        10.0179123236       16.3158075806       16.3158038621
  N        19.5098634519        6.7529429752       17.5587650393
  C        20.8268355753        6.4844050899       17.2857303160
  N         8.6909727647        6.7104647875        6.7104665696
  C        10.0039222376        6.4275670859        6.4275672297
  N         2.8161042192        6.7576712773        5.2013641087
  C         1.4987360423        6.4884426059        5.4723803715
  N        13.6516969355        6.6709888608       16.0753143447
  C        12.3306020435        6.4104546450       16.3371663725
  N        15.8332549931        5.1728215516       19.7232500237
  C        16.0973806876        5.4520925035       21.0384967607
  N        15.7882010475       16.0318075744        8.8899005226
  C        16.0569174822       16.2914224858       10.2113912455
  N        15.8322696693       17.5719970239        3.0270980571
  C        16.0992434989       17.2934360822        1.7122312960
  N        15.7733494738        6.7371145194       13.8604233383
  C        16.0433134017        6.4737456479       12.5399306548
  N         6.4944726509        5.1842205578        3.0303817018
  C         6.2281614181        5.4608873546        1.7142942481
  N         6.5647739579       16.0129872587       13.8553672252
  C         6.2932962721       16.2789237501       12.5364565392
  N         6.5140876848       17.5698102688       19.7210884987
  C         6.2432798505       17.2973533341       21.0372045485
  N         6.5499433446        6.7355317224        8.8934239730
  C         6.2793766864        6.4705041586       10.2131264711
  N        19.5098652881       17.5587689636        6.7529416857
  C        20.8268376795       17.2857333234        6.4844038393
  N         8.6821036862       17.5906505497       17.5906482046
  C        10.0041917532       17.3314586669       17.3314566110
  N         2.8161008559        5.2013586076        6.7576781554
  C         1.4987330886        5.4723775716        6.4884462052
  N        13.6351733095        5.1215534587       17.6332360912
  C        12.3189249754        5.3972365608       17.3557868766
  N         2.8327963359       17.5530323074       15.9982531628
  C         1.5153960752       17.2858794100       16.2700364350
  N        13.6351712758       17.6332387729        5.1215467702
  C        12.3189230508       17.3557872683        5.3972315645
  N        19.5080353820        5.1979239089       16.0025112545
  C        20.8257574670        5.4684176674       16.2699022415
  N         8.6659364491        5.1551537628        5.1551615862
  C         9.9885963690        5.4122177713        5.4122211618
  N         6.5140856236       19.7210898960       17.5698063785
  C         6.2432774598       21.0372064341       17.2973529460
  N         6.5499416487        8.8934207430        6.7355400092
  C         6.2793780934       10.2131234254        6.4705066438
  N         6.4944728351        3.0303737148        5.1842234110
  C         6.2281593323        1.7142883021        5.4608899769
  N         6.5647748280       13.8553701337       16.0129860173
  C         6.2932957842       12.5364580524       16.2789197612
  N        15.8322635727        3.0270965459       17.5719909931
  C        16.0992392677        1.7122302545       17.2934337117
  N        15.7733528393       13.8604291876        6.7371096458
  C        16.0433193877       12.5399355755        6.4737463399
  N        15.8332557589       19.7232540066        5.1728228021
  C        16.0973786101       21.0385014568        5.4520944157
  N        15.7881929446        8.8899014246       16.0318024225
  C        16.0569109525       10.2113913063       16.2914209836
  N        17.3682834221        6.7500240657       19.7201979987
  C        17.0993547482        6.4818412638       21.0377821560
  N        17.3593479018       17.5704657738        8.9004494707
  C        17.0848362124       17.2955296875       10.2160556598
  N         4.9551711611        6.7557579865        3.0338434530
  C         5.2226353706        6.4870830584        1.7153178998
  N         4.9949794137       17.5552366059       13.8528264534
  C         5.2683425864       17.2860409788       12.5360193045
  N        17.3680983800       15.9973281712        3.0336554667
  C        17.1022236291       16.2648731532        1.7149661957
  N        17.3459860818        5.1987281632       13.8556766199
  C        17.0712822686        5.4695597431       12.5387871489
  N         4.9738636935       15.9996511719       19.7161784058
  C         5.2371145966       16.2718003376       21.0349769981
  N         4.9792561711        5.1946851520        8.8987886669
  C         5.2539607330        5.4638726191       10.2151096474
  N        17.3740137866       19.7175516198       15.9977206184
  C        17.1050499939       21.0355615112       16.2653503085
  N        17.3423681307        8.9006791502        5.1904307717
  C        17.0694042057       10.2167791959        5.4655960909
  N         4.9655342173        3.0337748975       16.0035842395
  C         5.2333166890        1.7158042438       16.2740999371
  N         4.9823485986       13.8518206086        5.1909114741
  C         5.2549080863       12.5351131447        5.4616085145
  N        17.3628858973        3.0347902800        6.7528191321
  C        17.0971399905        1.7165453720        6.4836273065
  N        17.3599845738       13.8542239154       17.5567406892
  C        17.0850813671       12.5372473798       17.2888053085
  N         4.9608358934       19.7150720048        6.7612763752
  C         5.2250227452       21.0340586104        6.4902248285
  N         4.9885521173        8.8999275324       17.5498588561
  C         5.2657989617       10.2161459272       17.2830562981
  N        19.5010550745        6.7564186231        5.2005913564
  C        20.8185424094        6.4878277526        5.4719322430
  N         8.6974390772        6.7120832790       16.0329638124
  C        10.0105158431        6.4303357310       16.3167903747
  N         2.8238884933        6.7574785214       17.5482492236
  C         1.5063764710        6.4863856864       17.2809785683
  N        13.6446762849        6.6686840904        6.6686837192
  C        12.3237090876        6.4073468976        6.4073449050
  N         2.8224318008       15.9963643410        5.1982200554
  C         1.5053515352       16.2667903088        5.4686417099
  N        13.6587558970       16.0700851861       16.0700924828
  C        12.3380149510       16.3326979365       16.3327013981
  N        19.5187281274       16.0021526384       17.5573108451
  C        20.8360775625       16.2719137350       17.2877929687
  N         8.6974399968       16.0329599826        6.7120838410
  C        10.0105161849       16.3167894687        6.4303347025
  N         6.5052248756       17.5746996143        3.0327097529
  C         6.2391953757       17.2999422358        1.7160182445
  N         6.5526376937        6.7326841212       13.8549527313
  C         6.2800650755        6.4685386724       12.5358851219
  N         6.5003759368        5.1904539941       19.7201956103
  C         6.2307227249        5.4642345846       21.0360343165
  N         6.5591407654       16.0089266412        8.8940697628
  C         6.2911435145       16.2763992446       10.2137850325
  N        15.8373265122       17.5723616975       19.7207329301
  C        16.1017895008       17.2938406811       21.0361266082
  N        15.7705693129        6.7289498413        8.8922902708
  C        16.0416421219        6.4697815941       10.2133866775
  N        15.8287724633        5.1755831809        3.0290283833
  C        16.0954364140        5.4537675656        1.7142262718
  N        15.7878438888       16.0184691845       13.8572067838
  C        16.0569358334       16.2848633881       12.5370364953
 Zn        14.4986243011       14.7771540597       14.7771586170
 Cl        13.0568858228       13.6737337197       13.6737528395
 Zn        14.5437874062        3.8461027163        3.8461012414
 Cl        13.3848331443        2.5797129629        2.5797160628
 Zn         3.6823643290       14.7090760041        3.9005817992
 Cl         2.4445995924       13.4736764506        2.6763295465
 Zn         3.6823648427        3.9005823478       14.7090764963
 Cl         2.4446081085        2.6763291140       13.4736706390
 Zn         7.8527396224        8.0107186363       14.7270028846
 Cl         9.0848770713        9.2411113067       13.4914528529
 Zn         7.7893243036       18.8795385538        3.8866150620
 Cl         8.9999027222       20.1270828377        2.6464827373
 Zn        18.6476135670        8.0486622021        3.9019809087
 Cl        19.8748191295        9.2942782046        2.6792038650
 Zn        18.6608986633       18.8453326969       14.7090140763
 Cl        19.8880336183       20.0701259072       13.4633897257
 Zn         7.8527383720       14.7269969246        8.0107192586
 Cl         9.0848695273       13.4914427468        9.2411153933
 Zn         7.7893253693        3.8866140301       18.8795420127
 Cl         8.9999013227        2.6464791602       20.1270864800
 Zn        18.6609007777       14.7090061968       18.8453445440
 Cl        19.8880309088       13.4633731098       20.0701339725
 Zn        18.6476187460        3.9019844532        8.0486584746
 Cl        19.8748306293        2.6792131393        9.2942730126
 Zn        14.4838162899        7.9587054961        7.9587041710
 Cl        13.0304462684        9.0551077018        9.0551082313
 Zn        14.5494331642       18.8922195141       18.8922284339
 Cl        13.3857341139       20.1571386468       20.1571586201
 Zn         3.6823403054        8.0555936209       18.8354675136
 Cl         2.4426609730        9.2948736080       20.0543008565
 Zn         3.6823394450       18.8354657617        8.0555943711
 Cl         2.4426602378       20.0543024836        9.2948691807
 Zn        14.4930696023       14.7965332319        7.9714694811
 Cl        13.0508705748       13.7728136842        9.1508800231
 Zn        14.5464077224        3.8469693333       18.8959366870
 Cl        13.3836041017        2.5821540506       20.1609514370
 Zn         3.6910529414       14.7071964219       18.8415327419
 Cl         2.4548306311       13.4705819836       20.0669489717
 Zn         3.6764871249        3.9053356637        8.0520192197
 Cl         2.4356555660        2.6880252652        9.2909986113
 Zn         7.8484981643        8.0115732394        8.0115780374
 Cl         9.0818397384        9.2442879362        9.2442964421
 Zn         7.7986947042       18.8750515703       18.8750471265
 Cl         9.0144726185       20.1161542702       20.1161392619
 Zn        18.6585315442        8.0456625298       18.8588888304
 Cl        19.8898328029        9.2812252068       20.0876440333
 Zn        18.6585355990       18.8589013186        8.0456639444
 Cl        19.8898427572       20.0876496534        9.2812283300
 Zn        14.4930654932        7.9714737598       14.7965177281
 Cl        13.0508568564        9.1508940562       13.7728249759
 Zn        14.5464099237       18.8959421390        3.8469680596
 Cl        13.3836144016       20.1609577111        2.5821461679
 Zn         3.6764866961        8.0520151543        3.9053431942
 Cl         2.4356502502        9.2909926600        2.6880363951
 Zn         3.6910516054       18.8415347935       14.7071925120
 Cl         2.4548244693       20.0669474393       13.4705791632
 Zn         7.8599193584       14.7294593252       14.7294568724
 Cl         9.0908726287       13.4964207264       13.4964129112
 Zn         7.7812664429        3.8778281688        3.8778336143
 Cl         8.9866366940        2.6315061943        2.6315106194
 Zn        18.6520121852       14.7090323914        3.9060954119
 Cl        19.8777962324       13.4536454121        2.6908474897
 Zn        18.6520086636        3.9060973609       14.7090308025
 Cl        19.8777879136        2.6908509576       13.4536362832
 Zn         5.7509309348        5.9620621773       16.7807729740
 Zn        16.5897110442       16.8030120712       16.8030198582
 Zn        16.5687899710        5.9478189562        5.9478163314
 Zn         5.7509219818       16.7807725510        5.9620640332
 Zn         5.7422257224        5.9609005922        5.9609075774
 Zn        16.5789563125       16.8125862745        5.9503948344
 Zn         5.7706718183       16.7814596403       16.7814561243
 Zn        16.5789425809        5.9503976518       16.8125834183
  N         3.5694754487        5.9780573802       16.7714725870
  N        14.3827595994        5.8898789520        5.8898781784
  N        18.7719626638       16.7793724045       16.7793825130
  N         7.9384367025       16.8072940755        5.9431389800
  N        18.7541982441        5.9777086334        5.9777013006
  N         7.9384380694        5.9431367540       16.8072997276
  N         3.5694744176       16.7714744042        5.9780579650
  N        14.3978614750       16.8485904373       16.8485990826
  N        16.5954729036        3.7780304677        5.9609456402
  N        16.5754214864       14.6025683432       16.7888738797
  N        16.6067947548       18.9732620199       16.7885116125
  N        16.5570786106        8.1496835330        5.9547012085
  N         5.7325894807       18.9707825345        5.9747003725
  N         5.7708113320        8.1505231364       16.7793418490
  N         5.7353524751        3.7798442730       16.7902060621
  N         5.7675310147       14.5995693101        5.9600904304
  N         5.7353490540       16.7902050962        3.7798409512
  N         5.7675385916        5.9600880582       14.5995741232
  N        16.6067959794       16.7885018914       18.9732670498
  N        16.5570862415        5.9547051735        8.1496800374
  N         5.7325923117        5.9747012006       18.9707887522
  N         5.7708074723       16.7793377790        8.1505215282
  N        16.5954700116        5.9609484093        3.7780257156
  N        16.5754195705       16.7888658590       14.6025708101
  N         5.7248718999        3.7787305273        5.9676805775
  N         5.7792191654       14.6003273037       16.7848045272
  N        16.6020074907       18.9761538065        5.9579249360
  N        16.5749462972        8.1485424518       16.8056197747
  N         5.7464866590       18.9717773911       16.7850215834
  N         5.7631016217        8.1496059448        5.9638029267
  N        16.5998772431        3.7767333852       16.7883203374
  N        16.5610784821       14.6051104175        5.9649291951
  N         3.5797062783       16.7742664727       16.7742616404
  N        14.3897050459       16.8566654897        5.8944928384
  N        18.7622203516       16.7820739930        5.9748949535
  N         7.9473930792       16.8065968548       16.8065923100
  N        18.7622192561        5.9748958010       16.7820711448
  N         7.9316190619        5.9391569220        5.9391632867
  N         3.5621564767        5.9790139912        5.9790224155
  N        14.3897038853        5.8944989870       16.8566591928
  N        16.6020022378        5.9579264660       18.9761491216
  N        16.5749549027       16.8056277207        8.1485437850
  N        16.5998843372       16.7883289640        3.7767370512
  N        16.5610789446        5.9649396520       14.6051060466
  N         5.7248704411        5.9676779267        3.7787376392
  N         5.7792190380       16.7848054128       14.6003247852
  N         5.7464874967       16.7850293235       18.9717740465
  N         5.7631035366        5.9637920345        8.1496111928
  C        11.1849599907       15.7747347975       15.7747343769
  H        11.2022006863       14.9994497079       14.9994503683
  C        11.1408338793        4.8516924452        4.8516932987
  H        11.1234119421        4.0765119318        4.0765136862
  C         0.3448640465       15.7178428129        4.9176163253
  H         0.3442974561       14.9423769378        4.1419322517
  C         0.3448608224        4.9176170004       15.7178407989
  H         0.3442892679        4.1419336314       14.9423752386
  C        11.1789459818        6.9685401142       15.7761359187
  H        11.1982647626        7.7442805860       15.0013732492
  C        11.1475731459       17.8975627097        4.8593977532
  H        11.1305681401       18.6753153625        4.0867404238
  C         0.3385538538        7.0390941738        4.9220376894
  H         0.3389141069        7.8150531896        4.1468683393
  C         0.3557625012       17.8379382811       15.7204241257
  H         0.3561248365       18.6131513231       14.9444800989
  C        11.1789467271       15.7761363564        6.9685377480
  H        11.1982624054       15.0013737762        7.7442776631
  C        11.1475751098        4.8594002812       17.8975637532
  H        11.1305650954        4.0867433351       18.6753161299
  C         0.3557665070       15.7204217118       17.8379409090
  H         0.3561307315       14.9444788041       18.6131536170
  C         0.3385518171        4.9220373639        7.0390953704
  H         0.3389178289        4.1468666994        7.8150537733
  C        11.1721357070        6.9669474476        6.9669450363
  H        11.1915861433        7.7421632276        7.7421599209
  C        11.1580462960       17.8901962335       17.8901963368
  H        11.1437406549       18.6654562823       18.6654560865
  C         0.3472337099        7.0367532406       17.8334315962
  H         0.3485740765        7.8131901755       18.6081781262
  C         0.3472313606       17.8334341114        7.0367528519
  H         0.3485688038       18.6081802989        7.8131897268
  C        15.4985827504       11.3727497044       15.7473436269
  H        14.7043978067       11.3685008955       14.9918210234
  C        15.5522101174        0.5562510067        4.8944495103
  H        14.7890709148        0.5561168785        4.1061459885
  C         4.6989922804       11.3748535392        4.9176536845
  H         3.9166424155       11.3742472660        4.1488745013
  C         4.6898540448        0.5550074497       15.7171413994
  H         3.9214184639        0.5546453226       14.9346726085
  C        15.4854078011       11.3761051403        7.0131192052
  H        14.6933858092       11.3734418402        7.7703958356
  C        15.5556980665        0.5536859729       17.8512982993
  H        14.7916215649        0.5530523802       18.6386747171
  C         4.7121387216       11.3760479732       17.8303899030
  H         3.9299229674       11.3757651683       18.5993783415
  C         4.6789755235        0.5548241780        7.0449493285
  H         3.9109368379        0.5552554484        7.8277781200
  C         6.8474929414       11.3751259859       15.7324797860
  H         7.6291643063       11.3755855259       14.9631621164
  C         6.7749932717        0.5550021118        4.9067046612
  H         7.5430729152        0.5546563013        4.1235836407
  C        17.6259572799       11.3782369981        4.9241111978
  H        18.4078024239       11.3790444046        4.1546146876
  C        17.6470822216        0.5558337892       15.7065113307
  H        18.4136846645        0.5563809374       14.9223059423
  C         6.8344338854       11.3747058305        7.0153495399
  H         7.6160759269       11.3755098180        7.7847900674
  C         6.7867889394        0.5569638738       17.8544973196
  H         7.5553424989        0.5574903481       18.6371116038
  C        17.6405813517       11.3781256693       17.8361105031
  H        18.4228993447       11.3807887888       18.6050010949
  C        17.6412713248        0.5573059568        7.0419227551
  H        18.4072482096        0.5571553787        7.8267479196
  C        15.4985869604       15.7473419604       11.3727481656
  H        14.7044027674       14.9918190447       11.3684976744
  C        15.5522132092        4.8944450857        0.5562456232
  H        14.7890757084        4.1061416652        0.5561103070
  C         4.6898567875       15.7171422817        0.5550045061
  H         3.9214188408       14.9346744398        0.5546481787
  C         4.6989888882        4.9176547862       11.3748590993
  H         3.9166391958        4.1488752572       11.3742491934
  C         6.8474942129       15.7324827801       11.3751225377
  H         7.6291636724       14.9631644678       11.3755808221
  C         6.7749949210        4.9067051222        0.5550104061
  H         7.5430764404        4.1235830208        0.5546674326
  C        17.6470860072       15.7065087998        0.5558384741
  H        18.4136878590       14.9223034463        0.5563837474
  C        17.6259520000        4.9241080175       11.3782368421
  H        18.4078025260        4.1546181963       11.3790471924
  C        15.4854048397        7.0131187939       11.3760980886
  H        14.6933874389        7.7704011117       11.3734320477
  C        15.5557022597       17.8512968183        0.5536900902
  H        14.7916258910       18.6386751477        0.5530594574
  C         4.6789764965        7.0449481398        0.5548307207
  H         3.9109381602        7.8277744094        0.5552624090
  C         4.7121395719       17.8303932120       11.3760463571
  H         3.9299227352       18.5993813741       11.3757647141
  C         6.8344328546        7.0153489795       11.3747106279
  H         7.6160758335        7.7847881949       11.3755197089
  C         6.7867917902       17.8544979597        0.5569599584
  H         7.5553444815       18.6371115703        0.5574797300
  C        17.6412701994        7.0419226559        0.5573003827
  H        18.4072452106        7.8267513807        0.5571506719
  C        17.6405857531       17.8361080205       11.3781316979
  H        18.4229043077       18.6049985612       11.3807972107
 Xe        12.1712015944       11.3596444969       11.3596463121
