     409
 i =     150, E =    -5183.7337779083
  N         2.8216939561        5.1981643644       15.9962665866
  C         1.5046196527        5.4686411235       16.2666524969
  N        13.6258935630        5.1094351838        5.1094298311
  C        12.3096180665        5.3862273988        5.3862214339
  N        19.5176964585       17.5564891351       16.0015105157
  C        20.8351380510       17.2873681686       16.2715278732
  N         8.6698660585       17.5969253736        5.1590190080
  C         9.9927619432       17.3393761091        5.4141246261
  N        19.4994608362        5.2014639084        6.7572880029
  C        20.8170821308        5.4723733858        6.4883214632
  N         8.6698685863        5.1590169003       17.5969306750
  C         9.9927629129        5.4141242362       17.3393761896
  N         2.8231397942       17.5481464585        6.7574885391
  C         1.5056291540       17.2808072556        6.4863737732
  N        13.6421182177       17.6287841415       17.6287826426
  C        12.3259414982       17.3529537602       17.3529531535
  N        15.8291138178        3.0288875009        5.1751772802
  C        16.0958890763        1.7142435584        5.4536764109
  N        15.7849526607       13.8567494703       16.0155157917
  C        16.0545048219       12.5369407568       16.2823986400
  N        15.8378352888       19.7211550487       17.5729953170
  C        16.1023199652       21.0363389774       17.2939813992
  N        15.7660502823        8.8927866507        6.7334373220
  C        16.0366919594       10.2134957296        6.4724630673
  N         6.4988736715       19.7203892353        5.1899701851
  C         6.2296026265       21.0360570339        5.4643421447
  N         6.5590846066        8.8938847529       16.0097012381
  C         6.2911396432       10.2137526356       16.2769202292
  N         6.5036569358        3.0324160767       17.5751889019
  C         6.2380389924        1.7158928879       17.2999090650
  N         6.5526836920       13.8552306556        6.7319733429
  C         6.2800857044       12.5359969086        6.4680279043
  N         4.9647384587       16.0034076946        3.0336642659
  C         5.2325728833       16.2737081297        1.7156909941
  N         4.9818536417        5.1907388885       13.8518400409
  C         5.2546503810        5.4614019871       12.5352040475
  N        17.3734418604       15.9971286413       19.7174931099
  C        17.1049165996       16.2648582934       21.0356112402
  N        17.3379309628        5.1944157757        8.9002657506
  C        17.0644032536        5.4681668986       10.2166149902
  N         4.9601044684        6.7614914949       19.7150291238
  C         5.2243332614        6.4907069057       21.0340121172
  N         4.9879373921       17.5499921416        8.9000461595
  C         5.2654995780       17.2832548551       10.2162071865
  N        17.3618036233        6.7537478085        3.0350302048
  C        17.0968668819        6.4842772764        1.7166598283
  N        17.3570218599       17.5540320315       13.8547141609
  C        17.0826993855       17.2862609180       12.5375126831
  N         4.9540777891        3.0336704882        6.7557522786
  C         5.2217030739        1.7151301559        6.4875002377
  N         4.9943272102       13.8528239898       17.5554651344
  C         5.2680028715       12.5360858812       17.2862781905
  N        17.3679774799       19.7201527386        6.7507194740
  C        17.0994505931       21.0378863940        6.4824456334
  N        17.3571753997        8.9005062814       17.5684751520
  C        17.0828580506       10.2161884747       17.2933543018
  N         4.9730809638       19.7162372512       15.9994809750
  C         5.2363669667       21.0350479915       16.2714185783
  N         4.9784333221        8.8988699120        5.1945218664
  C         5.2534931673       10.2151166971        5.4636427339
  N        17.3672355051        3.0339305157       15.9965519254
  C        17.1019772877        1.7151124940       16.2643049330
  N        17.3422290413       13.8559720202        5.2022768419
  C        17.0667328248       12.5388749537        5.4720533629
  N         2.8319816758       15.9982352097       17.5530332171
  C         1.5145703075       16.2699854507       17.2858341882
  N        13.6509879069       16.0803385346        6.6638589680
  C        12.3292434077       16.3413948831        6.4046477373
  N        19.5069854760       16.0016123913        5.1987008107
  C        20.8248539422       16.2692816785        5.4687195643
  N         8.7038636032       16.0368578930       16.0368585640
  C        10.0166701405       16.3199651214       16.3199659590
  N        19.5089563679        6.7535278115       17.5578366830
  C        20.8260112130        6.4846848434       17.2851571357
  N         8.6890413642        6.7068866127        6.7068883106
  C        10.0014080710        6.4224407449        6.4224387113
  N         2.8148652864        6.7576865763        5.2013203958
  C         1.4974381602        6.4885105857        5.4724154594
  N        13.6509860191        6.6638615230       16.0803379166
  C        12.3292446038        6.4046472251       16.3413937869
  N        15.8339521853        5.1724020119       19.7236624172
  C        16.0980664522        5.4520578249       21.0387311193
  N        15.7860325757       16.0297617829        8.8901219477
  C        16.0548124087       16.2893913109       10.2113771025
  N        15.8327488793       17.5727190564        3.0269875372
  C        16.0997301025       17.2936413004        1.7122685370
  N        15.7697016004        6.7414492443       13.8603163156
  C        16.0388667172        6.4765039623       12.5400691694
  N         6.4924763695        5.1834133814        3.0298845608
  C         6.2267569826        5.4608859542        1.7140105797
  N         6.5647321540       16.0138582466       13.8557402869
  C         6.2932959071       16.2794724109       12.5366618077
  N         6.5125705330       17.5702892351       19.7213457562
  C         6.2421557916       17.2973372334       21.0373060082
  N         6.5496718367        6.7347560865        8.8931275596
  C         6.2792075127        6.4699803591       10.2130144398
  N        19.5089622038       17.5578379522        6.7535255967
  C        20.8260194527       17.2851550876        6.4846833540
  N         8.6797129177       17.5934171346       17.5934157950
  C        10.0020887942       17.3352673005       17.3352671272
  N         2.8148621218        5.2013162608        6.7576890354
  C         1.4974344317        5.4724123919        6.4885120117
  N        13.6328187977        5.1158040022       17.6386929268
  C        12.3168167661        5.3920603060       17.3603997700
  N         2.8319813615       17.5530341147       15.9982327328
  C         1.5145702417       17.2858356646       16.2699830728
  N        13.6328179771       17.6386961744        5.1157991106
  C        12.3168125790       17.3604043857        5.3920567988
  N        19.5069813757        5.1987065920       16.0016124114
  C        20.8248480291        5.4687250138       16.2692864486
  N         8.6623287358        5.1515024356        5.1515054582
  C         9.9853093402        5.4074800441        5.4074789247
  N         6.5125642816       19.7213430984       17.5702891020
  C         6.2421487779       21.0373017681       17.2973389288
  N         6.5496748403        8.8931313410        6.7347627193
  C         6.2792129229       10.2130193952        6.4699828281
  N         6.4924759776        3.0298866894        5.1834139198
  C         6.2267545259        1.7140129021        5.4608849096
  N         6.5647311659       13.8557383658       16.0138612826
  C         6.2932933184       12.5366577819       16.2794732667
  N        15.8327448365        3.0269870879       17.5727146548
  C        16.0997278322        1.7122675217       17.2936352506
  N        15.7696982555       13.8603210310        6.7414441892
  C        16.0388628450       12.5400693946        6.4765012982
  N        15.8339504340       19.7236617368        5.1724027020
  C        16.0980597254       21.0387286470        5.4520588411
  N        15.7860304822        8.8901247011       16.0297577514
  C        16.0548129778       10.2113768114       16.2893885754
  N        17.3679740582        6.7507235805       19.7201525617
  C        17.0994507423        6.4824445858       21.0378814855
  N        17.3571813179       17.5684799139        8.9005060732
  C        17.0828631658       17.2933597517       10.2161910424
  N         4.9540770460        6.7557496725        3.0336702780
  C         5.2217041264        6.4875006295        1.7151291882
  N         4.9943314250       17.5554662595       13.8528238559
  C         5.2680074634       17.2862786716       12.5360844459
  N        17.3672393392       15.9965516446        3.0339268668
  C        17.1019813200       16.2643065415        1.7151032674
  N        17.3422270961        5.2022912019       13.8559713891
  C        17.0667308435        5.4720637327       12.5388797316
  N         4.9730829052       15.9994851195       19.7162364762
  C         5.2363713216       16.2714182616       21.0350467060
  N         4.9784285929        5.1945179961        8.8988708720
  C         5.2534877130        5.4636427082       10.2151168657
  N        17.3734402238       19.7174925190       15.9971285855
  C        17.1049133605       21.0356051847       16.2648573246
  N        17.3379233544        8.9002680729        5.1944197996
  C        17.0643977033       10.2166174652        5.4681676729
  N         4.9647364466        3.0336653913       16.0034137100
  C         5.2325690879        1.7156909754       16.2737141405
  N         4.9818516139       13.8518387854        5.1907344561
  C         5.2546523492       12.5352033140        5.4613968571
  N        17.3618095327        3.0350270700        6.7537513947
  C        17.0968680132        1.7166527492        6.4842813100
  N        17.3570219435       13.8547129701       17.5540319915
  C        17.0826982050       12.5375119475       17.2862589588
  N         4.9601062522       19.7150298704        6.7614894009
  C         5.2243328207       21.0340127423        6.4907039470
  N         4.9879387688        8.9000440082       17.5499968731
  C         5.2654978032       10.2162035789       17.2832569469
  N        19.4994640409        6.7572977513        5.2014600271
  C        20.8170860605        6.4883276298        5.4723707489
  N         8.6965038356        6.7090316485       16.0355669983
  C        10.0090215673        6.4256021096       16.3206806397
  N         2.8231371561        6.7574892058       17.5481467824
  C         1.5056262299        6.4863741389       17.2808106352
  N        13.6427711380        6.6627705137        6.6627689408
  C        12.3212656297        6.4020223462        6.4020174413
  N         2.8216989609       15.9962642081        5.1981654874
  C         1.5046234380       16.2666472624        5.4686406994
  N        13.6583219912       16.0753453353       16.0753428691
  C        12.3369329737       16.3371536488       16.3371529439
  N        19.5176973874       16.0015094207       17.5564916099
  C        20.8351398935       16.2715270392       17.2873699020
  N         8.6965064539       16.0355649980        6.7090346633
  C        10.0090254878       16.3206798445        6.4256058671
  N         6.5036563713       17.5751858228        3.0324178918
  C         6.2380424108       17.2999046027        1.7158927844
  N         6.5526854811        6.7319775683       13.8552263772
  C         6.2800837533        6.4680323731       12.5359938461
  N         6.4988728852        5.1899738300       19.7203862654
  C         6.2296034774        5.4643463878       21.0360534504
  N         6.5590876248       16.0097002875        8.8938859654
  C         6.2911433022       16.2769196673       10.2137521923
  N        15.8378376840       17.5729949998       19.7211527467
  C        16.1023217650       17.2939844957       21.0363339175
  N        15.7660522329        6.7334380726        8.8927821222
  C        16.0366960138        6.4724633993       10.2134936613
  N        15.8291121167        5.1751723081        3.0288842951
  C        16.0958921351        5.4536715018        1.7142411965
  N        15.7849508406       16.0155178407       13.8567470367
  C        16.0545033077       16.2824006809       12.5369359167
 Zn        14.4933577746       14.7806563565       14.7806534282
 Cl        12.9813119952       13.7247531502       13.7247586037
 Zn        14.5438828033        3.8438044832        3.8438058873
 Cl        13.3883160347        2.5759548891        2.5759608145
 Zn         3.6820321966       14.7089067443        3.9005446898
 Cl         2.4437119987       13.4737237484        2.6764813653
 Zn         3.6820332559        3.9005467399       14.7089079050
 Cl         2.4437120081        2.6764829310       13.4737247819
 Zn         7.8529328739        8.0088773848       14.7294434600
 Cl         9.0800289953        9.2411195483       13.4913196973
 Zn         7.7875923904       18.8810095812        3.8849176738
 Cl         8.9978291245       20.1288112316        2.6447899413
 Zn        18.6444059018        8.0494956506        3.9037352024
 Cl        19.8708713699        9.2970971892        2.6821890831
 Zn        18.6595673261       18.8435440296       14.7087610848
 Cl        19.8854087171       20.0677091233       13.4612430654
 Zn         7.8529350212       14.7294400930        8.0088769620
 Cl         9.0800302069       13.4913163674        9.2411204912
 Zn         7.7875905499        3.8849165430       18.8810132542
 Cl         8.9978274100        2.6447879462       20.1288139831
 Zn        18.6595652087       14.7087626109       18.8435429761
 Cl        19.8854030090       13.4612460525       20.0677100451
 Zn        18.6444114539        3.9037379928        8.0494921197
 Cl        19.8708798681        2.6821945655        9.2970919234
 Zn        14.4725805737        7.9551755935        7.9551766109
 Cl        12.9449018149        8.9998905676        8.9998970348
 Zn        14.5496655138       18.8949391785       18.8949409035
 Cl        13.3887345984       20.1609276590       20.1609274838
 Zn         3.6819570387        8.0556994602       18.8354302276
 Cl         2.4416124080        9.2947134558       20.0539986564
 Zn         3.6819604346       18.8354289717        8.0556985365
 Cl         2.4416152730       20.0539974366        9.2947106894
 Zn        14.4867225276       14.8041038410        7.9676312378
 Cl        12.9748826484       13.8414607984        9.1123378547
 Zn        14.5468526907        3.8446209903       18.8996160652
 Cl        13.3868131643        2.5781833953       20.1651111664
 Zn         3.6905069484       14.7071032272       18.8415964485
 Cl         2.4538153289       13.4706883963       20.0668773500
 Zn         3.6759249494        3.9053390893        8.0520774460
 Cl         2.4345672267        2.6882166099        9.2908896772
 Zn         7.8485135448        8.0093153666        8.0093176054
 Cl         9.0763793597        9.2444171161        9.2444202524
 Zn         7.7969260211       18.8765350920       18.8765341026
 Cl         9.0123517267       20.1177795133       20.1177790594
 Zn        18.6576807973        8.0459913628       18.8571333584
 Cl        19.8878232546        9.2831589840       20.0854094238
 Zn        18.6576865894       18.8571421548        8.0459907982
 Cl        19.8878341644       20.0854152913        9.2831562486
 Zn        14.4867232727        7.9676319554       14.8041054369
 Cl        12.9748878367        9.1123498669       13.8414715391
 Zn        14.5468517650       18.8996205759        3.8446178548
 Cl        13.3868149441       20.1651159096        2.5781781464
 Zn         3.6759252256        8.0520803031        3.9053394708
 Cl         2.4345640817        9.2908923490        2.6882161242
 Zn         3.6905080551       18.8415931347       14.7071001069
 Cl         2.4538187589       20.0668772219       13.4706875372
 Zn         7.8601523365       14.7320807033       14.7320862489
 Cl         9.0857495614       13.4966013483       13.4966020724
 Zn         7.7786236667        3.8747703941        3.8747671242
 Cl         8.9843621227        2.6288288396        2.6288311913
 Zn        18.6498374442       14.7085493082        3.9078637950
 Cl        19.8745088330       13.4509864498        2.6937275911
 Zn        18.6498366446        3.9078668865       14.7085485698
 Cl        19.8745103081        2.6937315757       13.4509835798
 Zn         5.7502994879        5.9616746278       16.7811139437
 Zn        16.5855156208       16.8053455315       16.8053478710
 Zn        16.5659107747        5.9471572904        5.9471586671
 Zn         5.7502934746       16.7811129809        5.9616743760
 Zn         5.7416270237        5.9603450674        5.9603524274
 Zn        16.5754158640       16.8141694044        5.9494377278
 Zn         5.7703243095       16.7818790774       16.7818759382
 Zn        16.5754098655        5.9494406119       16.8141687275
  N         3.5687087600        5.9780386154       16.7713712608
  N        14.3803509332        5.8843129814        5.8843126177
  N        18.7707263721       16.7785030649       16.7785043305
  N         7.9365759325       16.8095324656        5.9408881755
  N        18.7525928605        5.9787585766        5.9787502389
  N         7.9365747292        5.9408851130       16.8095376882
  N         3.5687120993       16.7713715968        5.9780384516
  N        14.3964128023       16.8538237859       16.8538213063
  N        16.5947904937        3.7780057104        5.9612172855
  N        16.5723375494       14.6027332051       16.7862111979
  N        16.6065709146       18.9735502021       16.7886843063
  N        16.5528750314        8.1497621799        5.9591499384
  N         5.7313906379       18.9708214511        5.9742987881
  N         5.7703789794        8.1504721546       16.7798121750
  N         5.7340937985        3.7796749396       16.7905970562
  N         5.7672354170       14.5997297223        5.9596296754
  N         5.7340922245       16.7905924845        3.7796748815
  N         5.7672400242        5.9596338307       14.5997285899
  N        16.6065713140       16.7886841069       18.9735492704
  N        16.5528733682        5.9591407804        8.1497486365
  N         5.7313880723        5.9743015003       18.9708183497
  N         5.7703794541       16.7798084865        8.1504749091
  N        16.5947850636        5.9612126460        3.7780041685
  N        16.5723366180       16.7862116517       14.6027338193
  N         5.7231708743        3.7784022548        5.9669067406
  N         5.7787879861       14.6004646896       16.7854090542
  N        16.6020080745       18.9763586696        5.9579309449
  N        16.5727454433        8.1485866585       16.8039419969
  N         5.7452726363       18.9719382749       16.7854069744
  N         5.7624317318        8.1495452947        5.9633072309
  N        16.5994891119        3.7767645952       16.7884013732
  N        16.5580499834       14.6053402448        5.9692272556
  N         3.5788621816       16.7742568028       16.7742549368
  N        14.3880549730       16.8621023168        5.8880309466
  N        18.7611068077       16.7810510798        5.9757671206
  N         7.9457910756       16.8089203889       16.8089198410
  N        18.7611005733        5.9757708889       16.7810496415
  N         7.9288587059        5.9360599166        5.9360640366
  N         3.5609146183        5.9789848360        5.9789891624
  N        14.3880531494        5.8880371798       16.8621005899
  N        16.6020056649        5.9579358523       18.9763565288
  N        16.5727530470       16.8039442395        8.1485869364
  N        16.5994928223       16.7884040424        3.7767623604
  N        16.5580412838        5.9692276062       14.6053272344
  N         5.7231697575        5.9669036486        3.7784001962
  N         5.7787898633       16.7854073634       14.6004664654
  N         5.7452754741       16.7854108100       18.9719382444
  N         5.7624284744        5.9632992403        8.1495451582
  C        11.1833435372       15.7795956843       15.7795965497
  H        11.2019860837       15.0044769918       15.0044790088
  C        11.1376356462        4.8469148374        4.8469116521
  H        11.1202252429        4.0718537680        4.0718525785
  C         0.3441136382       15.7175264388        4.9177424918
  H         0.3438099687       14.9420675810        4.1420830789
  C         0.3441061365        4.9177437519       15.7175304596
  H         0.3438022336        4.1420856923       14.9420712346
  C        11.1772250386        6.9623462722       15.7803403525
  H        11.1982934025        7.7381229426       15.0060055957
  C        11.1448787389       17.9017688172        4.8550828032
  H        11.1276155922       18.6795557498        4.0826862456
  C         0.3372336164        7.0392398426        4.9223064073
  H         0.3377704017        7.8152019387        4.1471287493
  C         0.3548834542       17.8377131459       15.7202676176
  H         0.3554580082       18.6129018857       14.9443057150
  C        11.1772280099       15.7803447939        6.9623452975
  H        11.1983052042       15.0060082346        7.7381230742
  C        11.1448811356        4.8550830833       17.9017688472
  H        11.1276218333        4.0826882695       18.6795563845
  C         0.3548853985       15.7202697118       17.8377132675
  H         0.3554648693       14.9443091348       18.6129043137
  C         0.3372291996        4.9223050084        7.0392357754
  H         0.3377554137        4.1471254853        7.8151966293
  C        11.1690451132        6.9609962816        6.9609921161
  H        11.1901072853        7.7360165973        7.7360121418
  C        11.1558478567       17.8941529903       17.8941524571
  H        11.1413952207       18.6693119738       18.6693099524
  C         0.3464490367        7.0367959615       17.8330911661
  H         0.3479060251        7.8132110934       18.6078785523
  C         0.3464539859       17.8330865030        7.0367933810
  H         0.3479114898       18.6078759643        7.8132066283
  C        15.4963103632       11.3725075608       15.7454475060
  H        14.7010372313       11.3677972982       14.9913851036
  C        15.5530630829        0.5562734377        4.8940613538
  H        14.7902316135        0.5560237901        4.1054049536
  C         4.6985379430       11.3749838682        4.9175542987
  H         3.9160952825       11.3744540831        4.1489205635
  C         4.6893390947        0.5549924406       15.7165024144
  H         3.9211006561        0.5545890082       14.9338410426
  C        15.4811157538       11.3763869703        7.0154955448
  H        14.6897595744       11.3738500167        7.7731713330
  C        15.5564813702        0.5538002889       17.8517642686
  H        14.7927004353        0.5531283946       18.6394772969
  C         4.7117350456       11.3760745208       17.8304412055
  H         3.9293671021       11.3757859071       18.5992664690
  C         4.6784135479        0.5546596994        7.0457284624
  H         3.9105967845        0.5550797887        7.8287262471
  C         6.8475556548       11.3751999523       15.7331512765
  H         7.6292069272       11.3757302610       14.9638360321
  C         6.7737684673        0.5549001646        4.9066489605
  H         7.5417074931        0.5547075667        4.1233693502
  C        17.6210994399       11.3781553026        4.9266082394
  H        18.4038838278       11.3786734428        4.1578644950
  C        17.6466305028        0.5559331219       15.7057032926
  H        18.4128550103        0.5564601344       14.9211827906
  C         6.8343959928       11.3746962953        7.0146675696
  H         7.6160181730       11.3753966089        7.7841210104
  C         6.7856764011        0.5569712808       17.8545984997
  H         7.5541091434        0.5574929395       18.6373342759
  C        17.6384804786       11.3784904134       17.8337071569
  H        18.4208244323       11.3812712061       18.6026752944
  C        17.6408998070        0.5574352875        7.0427609142
  H        18.4065156150        0.5573934990        7.8279231191
  C        15.4963124534       15.7454538314       11.3725077944
  H        14.7010368455       14.9913901725       11.3677932563
  C        15.5530717583        4.8940563120        0.5562688820
  H        14.7902409690        4.1053957249        0.5560180221
  C         4.6893419583       15.7164989807        0.5549902298
  H         3.9211012722       14.9338412111        0.5545847148
  C         4.6985322281        4.9175569239       11.3749859688
  H         3.9160896679        4.1489230460       11.3744577729
  C         6.8475603566       15.7331489369       11.3752027901
  H         7.6292083714       14.9638340087       11.3757350066
  C         6.7737713788        4.9066520184        0.5548952441
  H         7.5417102235        4.1233725227        0.5546978602
  C        17.6466281364       15.7057098787        0.5559309232
  H        18.4128560654       14.9211842767        0.5564650873
  C        17.6211026683        4.9266078707       11.3781516329
  H        18.4038847875        4.1578653608       11.3786757296
  C        15.4811152751        7.0154967372       11.3763750921
  H        14.6897575190        7.7731696872       11.3738320357
  C        15.5564817339       17.8517711550        0.5537982419
  H        14.7927034632       18.6394812814        0.5531283582
  C         4.6784146373        7.0457293429        0.5546577907
  H         3.9105959189        7.8287263466        0.5550806539
  C         4.7117399354       17.8304394298       11.3760769287
  H         3.9293709830       18.5992662814       11.3757867185
  C         6.8343931276        7.0146696758       11.3746907467
  H         7.6160155949        7.7841217733       11.3753812692
  C         6.7856803280       17.8545930762        0.5569740742
  H         7.5541141279       18.6373300280        0.5575013795
  C        17.6409030784        7.0427642727        0.5574364613
  H        18.4065114718        7.8279269557        0.5574001441
  C        17.6384833724       17.8337079449       11.3784934795
  H        18.4208287168       18.6026746860       11.3812758146
 Xe        13.0561917516       11.3529583159       11.3529672181
