     409
 i =     150, E =    -5183.7533083828
  N         2.8924667644        5.2026379663       15.9982753785
  C         1.5739245481        5.4703099508       16.2667604558
  N        13.7167953221        5.1559558464        5.1559564669
  C        12.3953887952        5.4175083302        5.4175106767
  N        19.5772022026       17.5511758959       15.9959038271
  C        20.8948483713       17.2850024617       16.2690662145
  N         8.7578993908       17.6206525689        5.1488222547
  C        10.0761212948       17.3457086984        5.4161750691
  N        19.5720643416        5.1982813897        6.7543943637
  C        20.8894289660        5.4716223941        6.4876199791
  N         8.7579149035        5.1488164296       17.6206685442
  C        10.0761350694        5.4161718714       17.3457208790
  N         2.8885922081       17.5511277174        6.7605370354
  C         1.5716028326       17.2811542671        6.4878729953
  N        13.7267988488       17.5872920194       17.5872907643
  C        12.4053860046       17.3268755321       17.3268757376
  N        15.8903303250        3.0278060027        5.1830103945
  C        16.1569210409        1.7115088992        5.4594589696
  N        15.8418612764       13.8530518241       16.0095478712
  C        16.1107285418       12.5339869632       16.2764437393
  N        15.8902576575       19.7172437484       17.5658398924
  C        16.1574033594       21.0336530046       17.2913199059
  N        15.8400500222        8.8915431001        6.7312963987
  C        16.1104198015       10.2109215066        6.4651141827
  N         6.5612415813       19.7261595811        5.1895894986
  C         6.2915776795       21.0415740743        5.4646597789
  N         6.6259469261        8.9016111660       16.0165977776
  C         6.3543975276       10.2209366575       16.2795559471
  N         6.5714928671        3.0371466693       17.5779124370
  C         6.3046731595        1.7209891477       17.3025250019
  N         6.6355707475       13.8608825600        6.7572301947
  C         6.3611116092       12.5424155449        6.4918145848
  N         5.0362819909       16.0025719494        3.0398360979
  C         5.3016972262       16.2737838017        1.7214239883
  N         5.0651348962        5.2149340013       13.8608566981
  C         5.3350969802        5.4857081267       12.5432296470
  N        17.4304394663       15.9955027270       19.7142041026
  C        17.1635772892       16.2657674636       21.0327685268
  N        17.4098004817        5.1897080529        8.8954923123
  C        17.1354844648        5.4582089091       10.2120048828
  N         5.0248978556        6.7650739668       19.7207509141
  C         5.2888642544        6.4938212534       21.0397750200
  N         5.0516293072       17.5536726986        8.9073129115
  C         5.3260467733       17.2830973564       10.2239413481
  N        17.4308433818        6.7535461377        3.0314770027
  C        17.1630782053        6.4850733873        1.7129980951
  N        17.4117784864       17.5513909391       13.8489834705
  C        17.1358020585       17.2834129929       12.5323812936
  N         5.0237666551        3.0401163379        6.7622654914
  C         5.2882215149        1.7210552831        6.4923458847
  N         5.0595017343       13.8621410629       17.5520170842
  C         5.3300269776       12.5447154965       17.2819980373
  N        17.4308797957       19.7131152808        6.7574453508
  C        17.1636455789       21.0317755244        6.4875331001
  N        17.4087696579        8.8960035703       17.5486957660
  C        17.1336271197       10.2125452403       17.2815154853
  N         5.0390280051       19.7219060869       16.0039338391
  C         5.3033268133       21.0407244558       16.2744626878
  N         5.0573910325        8.9053225296        5.2102367853
  C         5.3312047985       10.2218691251        5.4829029464
  N        17.4300491629        3.0319829747       15.9985528551
  C        17.1627952897        1.7136883486       16.2678559100
  N        17.4133319925       13.8486993054        5.1884146845
  C        17.1379101823       12.5320554734        5.4569998098
  N         2.8931271435       16.0052505600       17.5602767912
  C         1.5753011434       16.2736663983       17.2896099445
  N        13.7041290919       16.0287615679        6.7115476060
  C        12.3901205063       16.3105633071        6.4357606354
  N        19.5760849172       15.9953742535        5.1953776911
  C        20.8932697636       16.2655017011        5.4670313235
  N         8.7575466371       16.0598279424       16.0598269448
  C        10.0759530430       16.3256915718       16.3256930044
  N        19.5735378953        6.7541554851       17.5478919711
  C        20.8914065922        6.4848116730       17.2796062663
  N         8.7501868419        6.6916790937        6.6916537545
  C        10.0678941518        6.4229046677        6.4228940752
  N         2.8873773430        6.7647198773        5.2091262043
  C         1.5697118590        6.4927947219        5.4767956448
  N        13.7041371774        6.7115527164       16.0287640935
  C        12.3901300708        6.4357666257       16.3105688867
  N        15.8905183392        5.1872892745       19.7165476083
  C        16.1574856436        5.4619904115       21.0328450285
  N        15.8391200470       16.0070938043        8.8922380308
  C        16.1086123042       16.2745906774       10.2115268122
  N        15.8890901232       17.5686569677        3.0291469494
  C        16.1563806356       17.2932588801        1.7126483403
  N        15.8430462020        6.7299618938       13.8525045414
  C        16.1127046066        6.4638483560       12.5334152998
  N         6.5575513961        5.1844833693        3.0342704485
  C         6.2899014095        5.4623125471        1.7189784459
  N         6.6324975524       16.0132325789       13.8627337878
  C         6.3578383204       16.2778179012       12.5442727933
  N         6.5772126808       17.5773010023       19.7273369766
  C         6.3074235132       17.3022934180       21.0430435092
  N         6.6300324498        6.7498101017        8.8986790976
  C         6.3579646825        6.4881067359       10.2182098281
  N        19.5735232814       17.5478852205        6.7541485255
  C        20.8913947981       17.2796084942        6.4848029066
  N         8.7652920087       17.6143097460       17.6143103072
  C        10.0827400916       17.3414993505       17.3415016155
  N         2.8873783845        5.2091231787        6.7647206917
  C         1.5697110474        5.4767987339        6.4927916918
  N        13.7206955924        5.1595642282       17.5883440558
  C        12.3994031273        5.4225425898       17.3286681539
  N         2.8931296209       17.5602713642       16.0052627033
  C         1.5753017057       17.2896039193       16.2736758533
  N        13.7206840444       17.5883419950        5.1595592498
  C        12.3993918471       17.3286627318        5.4225372808
  N        19.5760904482        5.1953830937       15.9953818904
  C        20.8932790727        5.4670394073       16.2655003256
  N         8.7526286339        5.1364674909        5.1364520129
  C        10.0713406088        5.4069903046        5.4069844801
  N         6.5772150175       19.7273415561       17.5773042732
  C         6.3074138163       21.0430467638       17.3023073598
  N         6.6300181841        8.8986669546        6.7498162241
  C         6.3580562484       10.2181986058        6.4880021857
  N         6.5575564897        3.0342471306        5.1844683018
  C         6.2899118497        1.7189554951        5.4623024234
  N         6.6325039132       13.8627324550       16.0132436087
  C         6.3578050562       12.5442709503       16.2777874464
  N        15.8890884622        3.0291400564       17.5686550992
  C        16.1563796737        1.7126420407       17.2932556195
  N        15.8430496864       13.8525160543        6.7299550008
  C        16.1127067821       12.5334255679        6.4638440325
  N        15.8905104064       19.7165601555        5.1872834965
  C        16.1574796382       21.0328557174        5.4619857639
  N        15.8391207445        8.8922292437       16.0070972337
  C        16.1086091459       10.2115183158       16.2745958043
  N        17.4308854669        6.7574530683       19.7131082146
  C        17.1636500244        6.4875387295       21.0317656161
  N        17.4087689081       17.5486930702        8.8960090911
  C        17.1336306077       17.2815107378       10.2125524629
  N         5.0237670293        6.7622857692        3.0401367738
  C         5.2882130175        6.4923577729        1.7210764577
  N         5.0594976866       17.5520093527       13.8621458862
  C         5.3300607598       17.2820306210       12.5447191581
  N        17.4300494538       15.9985542463        3.0319872880
  C        17.1627952152       16.2678589175        1.7136941538
  N        17.4133293106        5.1884214380       13.8486931370
  C        17.1379087454        5.4570038066       12.5320471143
  N         5.0390260970       16.0039304372       19.7219037506
  C         5.3033370392       16.2744491645       21.0407203919
  N         5.0574041832        5.2102249725        8.9053334240
  C         5.3311119370        5.4830065949       10.2218819971
  N        17.4304419905       19.7141986041       15.9955003389
  C        17.1635793579       21.0327623080       16.2657630243
  N        17.4097933844        8.8954982807        5.1897114429
  C        17.1354770493       10.2120128257        5.4582118055
  N         5.0362765015        3.0398376524       16.0025799424
  C         5.3016852185        1.7214265195       16.2737911543
  N         5.0651065130       13.8608449642        5.2149645352
  C         5.3351669736       12.5432145713        5.4856420640
  N        17.4308475155        3.0314830793        6.7535545479
  C        17.1630818511        1.7130074441        6.4850797700
  N        17.4117715818       13.8489776600       17.5513869605
  C        17.1357944196       12.5323740473       17.2834114813
  N         5.0248976696       19.7207372448        6.7650918606
  C         5.2888651590       21.0397565090        6.4938288800
  N         5.0516404016        8.9073020001       17.5536687782
  C         5.3260273208       10.2239343308       17.2830704493
  N        19.5720603927        6.7543803436        5.1982952373
  C        20.8894293205        6.4876066134        5.4716348134
  N         8.7536438630        6.6997590452       16.0621978185
  C        10.0715353011        6.4296749709       16.3275139534
  N         2.8886094985        6.7605302409       17.5511087506
  C         1.5716164905        6.4878678708       17.2811372655
  N        13.7012649945        6.7114603686        6.7114638900
  C        12.3869524968        6.4331275754        6.4331303856
  N         2.8924567090       15.9982992848        5.2026383717
  C         1.5739125976       16.2667790866        5.4703128539
  N        13.7075770227       16.0311765606       16.0311737802
  C        12.3941687969       16.3111919875       16.3111913445
  N        19.5771993528       15.9959064720       17.5511705394
  C        20.8948477957       16.2690678713       17.2849990001
  N         8.7536321850       16.0621783423        6.6997598340
  C        10.0715230674       16.3274996964        6.4296762657
  N         6.5714968019       17.5779068996        3.0371470814
  C         6.3046848357       17.3025188476        1.7209886531
  N         6.6356061059        6.7571924905       13.8608964309
  C         6.3610443906        6.4918748902       12.5424292774
  N         6.5612468669        5.1895764679       19.7261856867
  C         6.2915795116        5.4646544401       21.0415976003
  N         6.6259411999       16.0166091474        8.9016142908
  C         6.3544191035       16.2795854864       10.2209408530
  N        15.8902556436       17.5658436838       19.7172495940
  C        16.1574015715       17.2913252144       21.0336589866
  N        15.8400566433        6.7312909769        8.8915337511
  C        16.1104269016        6.4651100203       10.2109124302
  N        15.8903265711        5.1830008746        3.0277939382
  C        16.1569178562        5.4594514034        1.7114985686
  N        15.8418677635       16.0095530096       13.8530606793
  C        16.1107362485       16.2764461431       12.5339955674
 Zn        14.5475018242       14.7269577541       14.7269556541
 Cl        13.3110197985       13.4970574351       13.4970508577
 Zn        14.6049205697        3.8775996884        3.8775965555
 Cl        13.3956466936        2.6329425113        2.6329577167
 Zn         3.7621771319       14.7083057843        3.9154608660
 Cl         2.5375496644       13.4529166478        2.6979254464
 Zn         3.7621984385        3.9154572429       14.7083044899
 Cl         2.5375527703        2.6979399211       13.4529217297
 Zn         7.9366961830        8.0101190632       14.7657313337
 Cl         9.3688051666        9.1734824234       13.6887739989
 Zn         7.8531608712       18.8938363428        3.8772166682
 Cl         9.0254150021       20.1571205035        2.6175942675
 Zn        18.7142547583        8.0480705642        3.9018719409
 Cl        19.9514767727        9.2862207941        2.6805071566
 Zn        18.7141192157       18.8385692081       14.7045405139
 Cl        19.9480146627       20.0630285441       13.4645714208
 Zn         7.9366661456       14.7657260035        8.0101254013
 Cl         9.3688004421       13.6887770074        9.1734634395
 Zn         7.8531638569        3.8772097899       18.8938526442
 Cl         9.0254127201        2.6175775404       20.1571319044
 Zn        18.7141143374       14.7045391564       18.8385662220
 Cl        19.9480090351       13.4645680325       20.0630267479
 Zn        18.7142576793        3.9018675009        8.0480751918
 Cl        19.9514792533        2.6805140096        9.2862312300
 Zn        14.5465331628        8.0110038240        8.0110055001
 Cl        13.3128060767        9.2431997118        9.2431984584
 Zn        14.6054725991       18.8725645298       18.8725647499
 Cl        13.3892604945       20.1131224991       20.1131212720
 Zn         3.7430031533        8.0576994522       18.8394100816
 Cl         2.5115683169        9.2992150951       20.0637464699
 Zn         3.7429910884       18.8394106931        8.0577124617
 Cl         2.5115714562       20.0637605135        9.2992271479
 Zn        14.5472848714       14.7245282359        8.0104014839
 Cl        13.3125889500       13.4916388106        9.2400291789
 Zn        14.6043734903        3.8827167513       18.8746048638
 Cl        13.3916850234        2.6403331904       20.1175795889
 Zn         3.7572507026       14.7123618976       18.8443816460
 Cl         2.5313470449       13.4663648109       20.0704830156
 Zn         3.7470118171        3.9184970601        8.0587445406
 Cl         2.5184767559        2.7012299962        9.3094743191
 Zn         7.9374535633        7.9989372274        7.9989387366
 Cl         9.3794456789        9.1131978260        9.1131702717
 Zn         7.8666313529       18.8888804286       18.8888801835
 Cl         9.0440350504       20.1477368028       20.1477442873
 Zn        18.7132812216        8.0510124016       18.8354993697
 Cl        19.9483256050        9.2904685555       20.0585056191
 Zn        18.7132740681       18.8354994182        8.0510083723
 Cl        19.9483256777       20.0585047421        9.2904609432
 Zn        14.5472840287        8.0104042034       14.7245240750
 Cl        13.3125789299        9.2400297853       13.4916411894
 Zn        14.6043715103       18.8746035963        3.8827220307
 Cl        13.3916804084       20.1175702023        2.6403361214
 Zn         3.7470057664        8.0587447976        3.9185403273
 Cl         2.5184953831        9.3094536424        2.7012347702
 Zn         3.7572465898       18.8443805928       14.7123672954
 Cl         2.5313398745       20.0704795190       13.4663677883
 Zn         7.9374010319       14.7589696624       14.7589722801
 Cl         9.3582745645       13.6309190561       13.6309221999
 Zn         7.8448214008        3.8624932332        3.8624944545
 Cl         9.0085758942        2.5979482605        2.5979407589
 Zn        18.7152262035       14.7067221277        3.9000357140
 Cl        19.9507753125       13.4683799405        2.6763867393
 Zn        18.7152255605        3.9000422363       14.7067235875
 Cl        19.9507792379        2.6763931282       13.4683836437
 Zn         5.8281049103        5.9627007517       16.8035310545
 Zn        16.6466084218       16.7793187451       16.7793189109
 Zn        16.6451523510        5.9581382669        5.9581417190
 Zn         5.8280702949       16.8035269049        5.9627319192
 Zn         5.8218332203        5.9582677966        5.9582767153
 Zn        16.6457491725       16.7789566594        5.9588601257
 Zn         5.8339472528       16.8028206655       16.8028319464
 Zn        16.6457610132        5.9588621233       16.7789541822
  N         3.6374232626        5.9830002562       16.7751063288
  N        14.4557148163        5.9379212763        5.9379226890
  N        18.8306616628       16.7715710742       16.7715653916
  N         8.0094082296       16.8426621287        5.9263309060
  N        18.8257885234        5.9746142522        5.9746312178
  N         8.0094227206        5.9263272686       16.8426827490
  N         3.6374089507       16.7751325880        5.9830041137
  N        14.4635508326       16.8042926215       16.8042897442
  N        16.6607291576        3.7761723064        5.9658828573
  N        16.6288149862       14.5972848245       16.7805983657
  N        16.6599204863       18.9689047856       16.7821510696
  N        16.6263583674        8.1469600312        5.9597392094
  N         5.7949783352       18.9775175627        5.9757669812
  N         5.8379804682        8.1575984013       16.7880564287
  N         5.8045005717        3.7848570961       16.7917688820
  N         5.8510366964       14.6077614088        5.9833804618
  N         5.8045043770       16.7917621048        3.7848582456
  N         5.8511110671        5.9833001858       14.6077743090
  N        16.6599173370       16.7821537325       18.9689104064
  N        16.6263660239        5.9597331181        8.1469526993
  N         5.7949817303        5.9757458349       18.9775367110
  N         5.8379612642       16.7880567299        8.1576063157
  N        16.6607237498        5.9658715485        3.7761638145
  N        16.6288214073       16.7806047345       14.5972919675
  N         5.7917616590        3.7833543541        5.9707439976
  N         5.8467581763       14.6092947424       16.7851009076
  N        16.6603214627       18.9680293181        5.9705585010
  N        16.6260015681        8.1475420129       16.7779650308
  N         5.8097662820       18.9786080448       16.7922361043
  N         5.8430586300        8.1550732586        5.9759495030
  N        16.6594309011        3.7770620812       16.7852182222
  N        16.6296353381       14.5968640733        5.9586193984
  N         3.6401898776       16.7831433619       16.7831539973
  N        14.4589436549       16.8030103144        5.9387908302
  N        18.8283830969       16.7710392260        5.9742190835
  N         8.0149806206       16.8375240388       16.8375223863
  N        18.8283931764        5.9742247570       16.7710519497
  N         8.0050783109        5.9149594523        5.9149312515
  N         3.6341648510        5.9879064879        5.9879072886
  N        14.4589533585        5.9387958266       16.8030104774
  N        16.6603299782        5.9705670395       18.9680196263
  N        16.6259978171       16.7779627542        8.1475489182
  N        16.6594321374       16.7852188887        3.7770674433
  N        16.6296315500        5.9586280645       14.5968552780
  N         5.7917624778        5.9707683260        3.7833748185
  N         5.8467315238       16.7850668219       14.6092979601
  N         5.8097565501       16.7922389217       18.9786049929
  N         5.8431330833        5.9758797948        8.1550852363
  C        11.2290262274       15.7684034992       15.7684040032
  H        11.2137274206       14.9929378717       14.9929370889
  C        11.2382165614        4.8619747570        4.8619763999
  H        11.2480159415        4.0866504888        4.0866547886
  C         0.4146748563       15.7164447409        4.9173798037
  H         0.4156414596       14.9413357071        4.1414216493
  C         0.4146714136        4.9173823896       15.7164348715
  H         0.4156123716        4.1414199812       14.9413303966
  C        11.2262411072        6.9812952054       15.7678990312
  H        11.2130038440        7.7564601610       14.9921575765
  C        11.2430909683       17.8888785703        4.8702022193
  H        11.2532302914       18.6661091938        4.0967649771
  C         0.4095406534        7.0410119736        4.9239834154
  H         0.4089365850        7.8171509535        4.1489787550
  C         0.4150767645       17.8380508118       15.7210258536
  H         0.4145211233       18.6130314051       14.9448817096
  C        11.2262359740       15.7678898924        6.9812909708
  H        11.2130087037       14.9921490270        7.7564557460
  C        11.2431079023        4.8702032707       17.8888872343
  H        11.2532486653        4.0967663612       18.6661177124
  C         0.4150657484       15.7210212667       17.8380509787
  H         0.4144898159       14.9448769855       18.6130314188
  C         0.4095601285        4.9239807865        7.0410176459
  H         0.4090026699        4.1489796383        7.8171589514
  C        11.2234724740        6.9776577086        6.9776548880
  H        11.2110924413        7.7531001586        7.7530953097
  C        11.2507280220       17.8846802452       17.8846824488
  H        11.2627800138       18.6600109198       18.6600137757
  C         0.4103957608        7.0376862081       17.8301312363
  H         0.4082355326        7.8147450341       18.6042582243
  C         0.4103691342       17.8301422843        7.0376842135
  H         0.4081855939       18.6042674575        7.8147450892
  C        15.5541544876       11.3735809866       15.7304542898
  H        14.7723261401       11.3752741600       14.9612791502
  C        15.6111262584        0.5515085096        4.9053562910
  H        14.8427546927        0.5503672197        4.1224735857
  C         4.7773848262       11.3841085363        4.9400703419
  H         3.9948795864       11.3869210974        4.1710701140
  C         4.7584033166        0.5605433787       15.7168073332
  H         3.9918268333        0.5594069679       14.9325605086
  C        15.5562777169       11.3729156089        7.0098432865
  H        14.7744619541       11.3744952456        7.7791118648
  C        15.6108821226        0.5525007787       17.8475926423
  H        14.8421697122        0.5514042782       18.6300683103
  C         4.7714808266       11.3854884910       17.8264437826
  H         3.9886544335       11.3876151424       18.5950435634
  C         4.7452420486        0.5605936267        7.0510279102
  H         3.9794540888        0.5607354506        7.8360057128
  C         6.9131189712       11.3814063538       15.7363235135
  H         7.7032602808       11.3784782211       14.9766009972
  C         6.8339355391        0.5601034061        4.9050366786
  H         7.5977644495        0.5598801262        4.1175109628
  C        17.6916308997       11.3712391303        4.9120222283
  H        18.4737311126       11.3697686751        4.1430574969
  C        17.7081399804        0.5538226653       15.7106613056
  H        18.4765531235        0.5550673089       14.9281623698
  C         6.9148954283       11.3786766812        7.0333690510
  H         7.7017685361       11.3749667206        7.7962054806
  C         6.8499613655        0.5626042102       17.8601691629
  H         7.6148089803        0.5637594562       18.6466344369
  C        17.6894748163       11.3715839056       17.8284264795
  H        18.4716230624       11.3699947846       18.5974294082
  C        17.7080890276        0.5530243722        7.0425461816
  H        18.4764490648        0.5542685696        7.8250299901
  C        15.5541605640       15.7304521867       11.3735946388
  H        14.7723323004       14.9612771969       11.3753004534
  C        15.6111283336        4.9053541931        0.5514861472
  H        14.8427580860        4.1224700145        0.5503211177
  C         4.7584176252       15.7167966145        0.5605457668
  H         3.9918363445       14.9325553132        0.5594200556
  C         4.7772786144        4.9401813941       11.3841118913
  H         3.9948267341        4.1711272854       11.3869049399
  C         6.9131541833       15.7363592424       11.3814041652
  H         7.7032764402       14.9766158017       11.3784665808
  C         6.8339307398        4.9050403042        0.5601373818
  H         7.5977617042        4.1175171321        0.5599340304
  C        17.7081380717       15.7106644331        0.5538262861
  H        18.4765494641       14.9281640541        0.5550672531
  C        17.6916351563        4.9120232294       11.3712379118
  H        18.4737371364        4.1430599640       11.3697787654
  C        15.5562806385        7.0098437784       11.3728979011
  H        14.7744661898        7.7791136010       11.3744583361
  C        15.6108812530       17.8475969050        0.5525101545
  H        14.8421672086       18.6300710987        0.5514224209
  C         4.7452363486        7.0510293743        0.5606030913
  H         3.9794480613        7.8360073713        0.5607281627
  C         4.7715140049       17.8264805888       11.3854972995
  H         3.9886678457       18.5950599523       11.3876207783
  C         6.9147928959        7.0334738534       11.3787029331
  H         7.7017223631        7.7962516310       11.3750354365
  C         6.8499742357       17.8601574853        0.5625946874
  H         7.6148182358       18.6466270661        0.5637270693
  C        17.7080882286        7.0425462242        0.5530257539
  H        18.4764467039        7.8250315105        0.5542881939
  C        17.6894815364       17.8284238029       11.3715869705
  H        18.4716308747       18.5974256177       11.3699928142
 Xe         7.5141499661       11.3606649028       11.3606698812
