     409
 i =     150, E =    -5183.7548832676
  N         2.9770640562        5.2082785166       16.0305399733
  C         1.6586720750        5.4782448200       16.2969397626
  N        13.7859102364        5.2022526980        5.2022543557
  C        12.4688677363        5.4747908126        5.4747934075
  N        19.6710727605       17.5746701133       16.0186993873
  C        20.9888217420       17.3066678293       16.2906328131
  N         8.8398471121       17.5822975065        5.2162924922
  C        10.1576463701       17.3084397825        5.4813262458
  N        19.6484927758        5.2000931969        6.7565169846
  C        20.9663150260        5.4742720330        6.4903834940
  N         8.8398460354        5.2162922325       17.5822992821
  C        10.1576455274        5.4813282313       17.3084408845
  N         2.9729395349       17.5845684096        6.7664783835
  C         1.6557402506       17.3121179666        6.4951529864
  N        13.8082502721       17.5752548503       17.5752543466
  C        12.4902591412       17.3066778869       17.3066769440
  N        15.9388096051        3.0439932798        5.1989958031
  C        16.2091280684        1.7263592700        5.4689296564
  N        15.9600321074       13.8666041017       16.0180223837
  C        16.2285680303       12.5488961295       16.2874716773
  N        15.9607259774       19.7276881692       17.5732018618
  C        16.2281885897       21.0454569676       17.3020108827
  N        15.9449780358        8.9108076167        6.7573016112
  C        16.2164988732       10.2280057872        6.4877251842
  N         6.6860806033       19.7422207828        5.2171907939
  C         6.4143843343       21.0597254881        5.4865874767
  N         6.6859539845        8.9204508488       16.0274406609
  C         6.4178012061       10.2382515180       16.2973029214
  N         6.6915794328        3.0596905898       17.5873685411
  C         6.4265648631        1.7411445845       17.3155116711
  N         6.6771888779       13.8758104870        6.7708311106
  C         6.4040824112       12.5585932751        6.5036296708
  N         5.1366935755       16.0309260126        3.0563317217
  C         5.4108726862       16.2992354745        1.7391955554
  N         5.1251991983        5.2120817674       13.8773349204
  C         5.3902290387        5.4856094637       12.5594761804
  N        17.5158896174       16.0165772495       19.7289367755
  C        17.2437939852       16.2856278041       21.0464646267
  N        17.4965999458        5.1982341452        8.9091394790
  C        17.2302647534        5.4696756400       10.2269504776
  N         5.1290142428        6.7714725318       19.7407418505
  C         5.3978040805        6.5020333012       21.0587091491
  N         5.1305891368       17.5837785263        8.9223616896
  C         5.4023438513       17.3138574959       10.2395968019
  N        17.4928731246        6.7560740907        3.0446304149
  C        17.2239845683        6.4859841664        1.7269890186
  N        17.5162479145       17.5737687013       13.8647080240
  C        17.2444325663       17.3036382919       12.5474539174
  N         5.1226149485        3.0571334352        6.7708279517
  C         5.3943020286        1.7395019751        6.5018124964
  N         5.1397670052       13.8779548070       17.5852258362
  C         5.4067785832       12.5599876354       17.3143661045
  N        17.4982436999       19.7294267903        6.7549905046
  C        17.2267365043       21.0467175067        6.4854354917
  N        17.5039895510        8.9091190906       17.5755546945
  C        17.2384355698       10.2271252951       17.3042015392
  N         5.1451372548       19.7405243376       16.0299694227
  C         5.4151383534       21.0583837172       16.2987638374
  N         5.1185660199        8.9218642353        5.2162546387
  C         5.3871490009       10.2393089934        5.4877638743
  N        17.5074816091        3.0453906353       16.0152020478
  C        17.2395574649        1.7273316285       16.2850915623
  N        17.5058971968       13.8644321448        5.2008623828
  C        17.2348485980       12.5470853326        5.4707801183
  N         2.9872404610       16.0306292346       17.5863339466
  C         1.6696050293       16.2962778267       17.3122349851
  N        13.7971741302       16.0161664032        6.7569238256
  C        12.4792938653       16.2877295377        6.4895152559
  N        19.6603434237       16.0198799510        5.2025210879
  C        20.9774061328       16.2917113160        5.4750309529
  N         8.8489043506       16.0258123173       16.0258106165
  C        10.1672090305       16.2940307642       16.2940303622
  N        19.6556279097        6.7575648920       17.5773061602
  C        20.9742885356        6.4906984235       17.3082047267
  N         8.8333298251        6.7682410931        6.7682420701
  C        10.1505723595        6.4960645371        6.4960653752
  N         2.9656517525        6.7676825567        5.2116671418
  C         1.6477756008        6.4958822176        5.4798219729
  N        13.7971738592        6.7569236112       16.0161664323
  C        12.4792929642        6.4895151028       16.2877296296
  N        15.9457628633        5.1965347160       19.7276864153
  C        16.2124837812        5.4678095020       21.0457146911
  N        15.9508770807       16.0179072286        8.9117177124
  C        16.2236516785       16.2871649359       10.2287952185
  N        15.9514374453       17.5707545428        3.0432473815
  C        16.2235797903       17.3010947335        1.7259741584
  N        15.9519668003        6.7585297430       13.8655081816
  C        16.2202728363        6.4881875218       12.5479409495
  N         6.6767258086        5.2142614753        3.0584213577
  C         6.4097885103        5.4854166243        1.7404487940
  N         6.6939558448       16.0280630839       13.8759335736
  C         6.4218207129       16.2974650178       12.5586630693
  N         6.7023986929       17.5851275945       19.7419937465
  C         6.4316329239       17.3144272201       21.0596627295
  N         6.6728585308        6.7729738081        8.9215078427
  C         6.4019173374        6.5048838182       10.2388841827
  N        19.6556320643       17.5773064725        6.7575659977
  C        20.9742918914       17.3082024616        6.4906983532
  N         8.8529362752       17.5817420148       17.5817407349
  C        10.1698601364       17.3100346166       17.3100343080
  N         2.9656505868        5.2116639720        6.7676819654
  C         1.6477762233        5.4798203622        6.4958813514
  N        13.7959661568        5.1998604277       17.5718564014
  C        12.4785203921        5.4735215650       17.3039024175
  N         2.9872404172       17.5863350891       16.0306291254
  C         1.6696056976       17.3122364519       16.2962768613
  N        13.7959678085       17.5718554426        5.1998599290
  C        12.4785211378       17.3039018875        5.4735211113
  N        19.6603417652        5.2025193760       16.0198798276
  C        20.9774033713        5.4750308359       16.2917139137
  N         8.8287987279        5.2121773172        5.2121781859
  C        10.1473781773        5.4800030752        5.4800038296
  N         6.7024007843       19.7419958186       17.5851259247
  C         6.4316335137       21.0596652209       17.3144267629
  N         6.6728575504        8.9215076826        6.7729768408
  C         6.4019174701       10.2388831251        6.5048848497
  N         6.6767258455        3.0584227433        5.2142622335
  C         6.4097898701        1.7404495601        5.4854152635
  N         6.6939568741       13.8759340140       16.0280615145
  C         6.4218208493       12.5586627873       16.2974659262
  N        15.9514339941        3.0432490492       17.5707518616
  C        16.2235756076        1.7259756521       17.3010930968
  N        15.9519678798       13.8655067717        6.7585284047
  C        16.2202744151       12.5479404816        6.4881858895
  N        15.9457636687       19.7276839959        5.1965361926
  C        16.2124808423       21.0457119156        5.4678140786
  N        15.9508746634        8.9117193959       16.0179078828
  C        16.2236511928       10.2287973403       16.2871635582
  N        17.4982404524        6.7549913713       19.7294293909
  C        17.2267380372        6.4854327458       21.0467204508
  N        17.5039927460       17.5755532920        8.9091166869
  C        17.2384362480       17.3042023297       10.2271228736
  N         5.1226136248        6.7708262926        3.0571343187
  C         5.3942997073        6.5018131461        1.7395019932
  N         5.1397666972       17.5852280452       13.8779540618
  C         5.4067790910       17.3143655942       12.5599864227
  N        17.5074850012       16.0152046854        3.0453895686
  C        17.2395618511       16.2850930450        1.7273298827
  N        17.5058956515        5.2008630508       13.8644321532
  C        17.2348464968        5.4707816379       12.5470869161
  N         5.1451354488       16.0299709031       19.7405214118
  C         5.4151377306       16.2987641516       21.0583817127
  N         5.1185654074        5.2162531122        8.9218660262
  C         5.3871480958        5.4877638616       10.2393095598
  N        17.5158886472       19.7289392681       16.0165746677
  C        17.2437905240       21.0464662282       16.2856255876
  N        17.4965974303        8.9091375282        5.1982342039
  C        17.2302663879       10.2269495547        5.4696750123
  N         5.1366912204        3.0563330698       16.0309252123
  C         5.4108722832        1.7391972312       16.2992376217
  N         5.1252024309       13.8773356878        5.2120809042
  C         5.3902303244       12.5594756353        5.4856067219
  N        17.4928752956        3.0446271824        6.7560789761
  C        17.2239821981        1.7269864322        6.4859888325
  N        17.5162448984       13.8647104486       17.5737662700
  C        17.2444318265       12.5474562667       17.3036371912
  N         5.1290141755       19.7407427817        6.7714711091
  C         5.3978067570       21.0587100258        6.5020309887
  N         5.1305875708        8.9223622592       17.5837776969
  C         5.4023419506       10.2395970942       17.3138582458
  N        19.6484915416        6.7565137434        5.2000985905
  C        20.9663141544        6.4903837131        5.4742736241
  N         8.8402429646        6.7682522272       16.0226930144
  C        10.1580599587        6.4954902276       16.2905854557
  N         2.9729379783        6.7664783630       17.5845688304
  C         1.6557379122        6.4951547078       17.3121222488
  N        13.7907547152        6.7588005363        6.7588017939
  C        12.4721713055        6.4909102130        6.4909126721
  N         2.9770674469       16.0305398567        5.2082789801
  C         1.6586750663       16.2969354513        5.4782433209
  N        13.8049751974       16.0192139340       16.0192130306
  C        12.4879264272       16.2906636654       16.2906626449
  N        19.6710722761       16.0187026159       17.5746650833
  C        20.9888210162       16.2906338317       17.3066659723
  N         8.8402445511       16.0226914227        6.7682519925
  C        10.1580613281       16.2905845439        6.4954883329
  N         6.6915818979       17.5873680459        3.0596883736
  C         6.4265655288       17.3155091705        1.7411420664
  N         6.6771865509        6.7708319637       13.8758123022
  C         6.4040816287        6.5036320562       12.5585940043
  N         6.6860807041        5.2171928614       19.7422204026
  C         6.4143820566        5.4865904770       21.0597253455
  N         6.6859553447       16.0274401979        8.9204507479
  C         6.4178026993       16.2973015172       10.2382507806
  N        15.9607268905       17.5732037939       19.7276873108
  C        16.2281919211       17.3020128641       21.0454558240
  N        15.9449798036        6.7573021492        8.9108073968
  C        16.2164972244        6.4877258965       10.2280054934
  N        15.9388100834        5.1989894304        3.0439950139
  C        16.2091320285        5.4689235710        1.7263607478
  N        15.9600349563       16.0180242424       13.8666025633
  C        16.2285686684       16.2874726834       12.5488948011
 Zn        14.6654710643       14.7253287998       14.7253235959
 Cl        13.4329213389       13.4932909910       13.4932845147
 Zn        14.6488578960        3.9064924934        3.9064986442
 Cl        13.4107613749        2.6769657718        2.6769727052
 Zn         3.8410900537       14.7407928669        3.9127582728
 Cl         2.6088881651       13.5073299383        2.6811047680
 Zn         3.8410864629        3.9127561686       14.7407867485
 Cl         2.6088816962        2.6810991512       13.5073279275
 Zn         7.9732015878        8.0595364005       14.7298133583
 Cl         9.2018111180        9.2929999440       13.4944472249
 Zn         7.9801396960       18.8793773947        3.9294148924
 Cl         9.2147593204       20.1111737272        2.6976655758
 Zn        18.7840464743        8.0487186745        3.9038643252
 Cl        20.0181320853        9.2795198586        2.6714275367
 Zn        18.8109890488       18.8681923115       14.7241966288
 Cl        20.0425124374       20.0985216867       13.4896008199
 Zn         7.9732026852       14.7298131881        8.0595362525
 Cl         9.2018122797       13.4944482829        9.2930007703
 Zn         7.9801373405        3.9294093571       18.8793788703
 Cl         9.2147598934        2.6976639821       20.1111772738
 Zn        18.8109897190       14.7242002338       18.8681850769
 Cl        20.0425096964       13.4896043845       20.0985158163
 Zn        18.7840480416        3.9038596409        8.0487260732
 Cl        20.0181343526        2.6714218278        9.2795279628
 Zn        14.6556712482        8.0522535370        8.0522558869
 Cl        13.4238191674        9.2849636879        9.2849676830
 Zn        14.6690019771       18.8689094482       18.8689062202
 Cl        13.4373388188       20.1013594896       20.1013570936
 Zn         3.8371835031        8.0607685927       18.8759137196
 Cl         2.6057859527        9.2971445798       20.1055654905
 Zn         3.8371839926       18.8759151342        8.0607691258
 Cl         2.6057850427       20.1055659965        9.2971457714
 Zn        14.6599107641       14.7240909537        8.0524780945
 Cl        13.4267967329       13.4922808122        9.2845092787
 Zn        14.6582846398        3.9023998272       18.8637681309
 Cl        13.4232454167        2.6695714487       20.0929533895
 Zn         3.8486555473       14.7395359696       18.8790919457
 Cl         2.6179054626       13.5061425166       20.1121361739
 Zn         3.8315721438        3.9208080667        8.0604418560
 Cl         2.5995538598        2.6901908830        9.2957799113
 Zn         7.9670089698        8.0606745834        8.0606753974
 Cl         9.1948060393        9.2956485209        9.2956499925
 Zn         7.9965479118       18.8765296595       18.8765290747
 Cl         9.2335978310       20.1064058068       20.1064059222
 Zn        18.7890203173        8.0489888958       18.8722793402
 Cl        20.0230959271        9.2797162695       20.1050118782
 Zn        18.7890226894       18.8722799281        8.0489888834
 Cl        20.0230960524       20.1050146011        9.2797169448
 Zn        14.6599101229        8.0524781956       14.7240902661
 Cl        13.4267938655        9.2845086105       13.4922813973
 Zn        14.6582861810       18.8637696312        3.9024006216
 Cl        13.4232443654       20.0929532533        2.6695730917
 Zn         3.8315727679        8.0604411754        3.9208103877
 Cl         2.5995534434        9.2957786963        2.6901942378
 Zn         3.8486560673       18.8790934682       14.7395387067
 Cl         2.6179087662       20.1121354170       13.5061400159
 Zn         7.9869697753       14.7325298393       14.7325261151
 Cl         9.2154606561       13.4984463552       13.4984478413
 Zn         7.9631885062        3.9202811691        3.9202819608
 Cl         9.1970546619        2.6880776827        2.6880764943
 Zn        18.8002389222       14.7241048315        3.9082701549
 Cl        20.0329669196       13.4895999401        2.6787552968
 Zn        18.8002361889        3.9082698387       14.7241021830
 Cl        20.0329640328        2.6787548205       13.4895958847
 Zn         5.9042049655        5.9947732764       16.8120905042
 Zn        16.7359974878       16.7945896290       16.7945996013
 Zn        16.7175048622        5.9760618767        5.9760531244
 Zn         5.9042059708       16.8120893016        5.9947718708
 Zn         5.8975792584        5.9952660909        5.9952677854
 Zn        16.7238728998       16.7933072398        5.9755977238
 Zn         5.9185607366       16.8130507985       16.8130498866
 Zn        16.7238713122        5.9755997831       16.7933174583
  N         3.7213304831        5.9876798788       16.8091191781
  N        14.5345290472        5.9794205933        5.9794245588
  N        18.9244931571       16.7956994640       16.7956982154
  N         8.0934298388       16.8043496531        5.9941742282
  N        18.9022190011        5.9761725105        5.9761727757
  N         8.0934287434        5.9941733233       16.8043483879
  N         3.7213330127       16.8091164389        5.9876775180
  N        14.5530734720       16.7965500709       16.7965471488
  N        16.7159504364        3.7909209751        5.9772475134
  N        16.7389686241       14.6120689205       16.7959127312
  N        16.7395245124       18.9816875984       16.7956206603
  N        16.7198174140        8.1632110975        5.9775518310
  N         5.9082008885       18.9950191383        5.9943569574
  N         5.9073040632        8.1750751734       16.8055590806
  N         5.9115303556        3.8047039433       16.8102304828
  N         5.9035476880       14.6233753747        5.9897967890
  N         5.9115311380       16.8102287051        3.8047014319
  N         5.9035470748        5.9897992631       14.6233764354
  N        16.7395273704       16.7956219641       18.9816874616
  N        16.7198156751        5.9775516775        8.1632102283
  N         5.9081979323        5.9943576057       18.9950190018
  N         5.9073076027       16.8055603539        8.1750742546
  N        16.7159540455        5.9772416375        3.7909217223
  N        16.7389685725       16.7959151540       14.6120683679
  N         5.8984857212        3.8045687010        5.9919113264
  N         5.9181948693       14.6236835249       16.8071452871
  N        16.7235413892       18.9817911757        5.9750943970
  N        16.7258036840        8.1636222433       16.7972183543
  N         5.9237079450       18.9949693007       16.8081925181
  N         5.8965020537        8.1752618416        5.9937000605
  N        16.7285280942        3.7908466273       16.7930409090
  N        16.7297240667       14.6113949532        5.9800222009
  N         3.7338458927       16.8108306554       16.8108311227
  N        14.5427891436       16.7930305409        5.9768226240
  N        18.9115743671       16.7979710807        5.9785996770
  N         8.1043979998       16.8047559233       16.8047527585
  N        18.9115713137        5.9786006814       16.7979736866
  N         8.0846183011        5.9911503788        5.9911525674
  N         3.7120150344        5.9906556930        5.9906548989
  N        14.5427883069        5.9768204055       16.7930284087
  N        16.7235432239        5.9750928766       18.9817948555
  N        16.7258031523       16.7972184427        8.1636199356
  N        16.7285329839       16.7930413064        3.7908448250
  N        16.7297197111        5.9800242735       14.6113970120
  N         5.8984826039        5.9919101526        3.8045685772
  N         5.9181962769       16.8071471855       14.6236830595
  N         5.9237045502       16.8081944091       18.9949671112
  N         5.8965046319        5.9936977274        8.1752629388
  C        11.3259929520       15.7419014690       15.7419012210
  H        11.3236099374       14.9663452226       14.9663435947
  C        11.3057497304        4.9271837098        4.9271848590
  H        11.3019415747        4.1516279415        4.1516297292
  C         0.4999738293       15.7437506508        4.9266758888
  H         0.5032843449       14.9679919645        4.1513194184
  C         0.4999721306        4.9266771356       15.7437549995
  H         0.5032869984        4.1513205522       14.9679961066
  C        11.3193369623        7.0421981460       15.7382569293
  H        11.3206868163        7.8171739513       14.9621596617
  C        11.3173399392       17.8568875670        4.9274145509
  H        11.3160984164       18.6331297343        4.1525084328
  C         0.4870957257        7.0438293100        4.9272939887
  H         0.4872515986        7.8197941250        4.1521674254
  C         0.5092314964       17.8595240306       15.7427167308
  H         0.5094443916       18.6350665776       14.9671378058
  C        11.3193374487       15.7382564398        7.0421969783
  H        11.3206836501       14.9621609417        7.8171745952
  C        11.3173385840        4.9274168806       17.8568888539
  H        11.3160948011        4.1525100738       18.6331303435
  C         0.5092313036       15.7427173765       17.8595225441
  H         0.5094483360       14.9671387886       18.6350648850
  C         0.4870961437        4.9272917480        7.0438267736
  H         0.4872494680        4.1521630463        7.8197901889
  C        11.3136995682        7.0436795510        7.0436808720
  H        11.3176529707        7.8192165534        7.8192188419
  C        11.3315975165       17.8588090886       17.8588087705
  H        11.3339303058       18.6343730407       18.6343712535
  C         0.4930937055        7.0436203638       17.8599410267
  H         0.4900935038        7.8194829828       18.6351508188
  C         0.4930976989       17.8599373678        7.0436189752
  H         0.4901033405       18.6351476364        7.8194815318
  C        15.6760439008       11.3900192124       15.7362848258
  H        14.9008058277       11.3919338677       14.9603974441
  C        15.6606195068        0.5655165154        4.9175693605
  H        14.8856250621        0.5647489348        4.1414632161
  C         4.8383720973       11.3996357425        4.9358251661
  H         4.0643964465       11.3997838473        4.1587237774
  C         4.8631330100        0.5779338873       15.7481555875
  H         4.0874814837        0.5765394154       14.9726419610
  C        15.6686320000       11.3887208103        7.0394381028
  H        14.8940274632       11.3899437681        7.8159780100
  C        15.6752786984        0.5648732202       17.8518230465
  H        14.8995066203        0.5635590877       18.6271838196
  C         4.8544020527       11.4007103089       17.8649144630
  H         4.0794552551       11.4019381746       18.6410580821
  C         4.8457778669        0.5783819611        7.0525326126
  H         4.0703329519        0.5771397890        7.8281977709
  C         6.9697838846       11.3975832444       15.7462441689
  H         7.7447687216       11.3959926152       14.9700501895
  C         6.9627977870        0.5808911110        4.9357771582
  H         7.7385642576        0.5822403931        4.1604041197
  C        17.7822326174       11.3862167014        4.9186942290
  H        18.5564809245       11.3849381406        4.1418224218
  C        17.7916727254        0.5677470277       15.7345127452
  H        18.5666556316        0.5692173648       14.9583813777
  C         6.9518813705       11.3984851248        7.0567911833
  H         7.7264341241       11.3979135345        7.8334051788
  C         6.9798930809        0.5813648564       17.8647452815
  H         7.7554436619        0.5829420954       18.6402520225
  C        17.7918473701       11.3860335925       17.8546200443
  H        18.5669333699       11.3839781356       18.6306600732
  C        17.7748786479        0.5673554662        7.0372631472
  H        18.5494700328        0.5682224180        7.8138334960
  C        15.6760451151       15.7362855977       11.3900171324
  H        14.9008068624       14.9603982858       11.3919275760
  C        15.6606232682        4.9175635359        0.5655188998
  H        14.8856302018        4.1414561606        0.5647546426
  C         4.8631328226       15.7481541434        0.5779309848
  H         4.0874814555       14.9726407602        0.5765317145
  C         4.8383707646        4.9358277548       11.3996373332
  H         4.0643942363        4.1587264515       11.3997887521
  C         6.9697838125       15.7462423898       11.3975833703
  H         7.7447692176       14.9700484254       11.3959937016
  C         6.9627964915        4.9357805136        0.5808899914
  H         7.7385628526        4.1604075600        0.5822365117
  C        17.7916770341       15.7345140952        0.5677450215
  H        18.5666597695       14.9583831387        0.5692138459
  C        17.7822305201        4.9186965613       11.3862180695
  H        18.5564794812        4.1418245233       11.3849393660
  C        15.6686308694        7.0394401222       11.3887208981
  H        14.8940270394        7.8159804420       11.3899453192
  C        15.6752825025       17.8518244318        0.5648723926
  H        14.8995100614       18.6271850157        0.5635590330
  C         4.8457747880        7.0525340003        0.5783821985
  H         4.0703279038        7.8281971346        0.5771416716
  C         4.8544032463       17.8649137918       11.4007094064
  H         4.0794578168       18.6410584640       11.4019385368
  C         6.9518815380        7.0567923573       11.3984853230
  H         7.7264347815        7.8334053388       11.3979093943
  C         6.9798931400       17.8647435681        0.5813631577
  H         7.7554437670       18.6402502066        0.5829459543
  C        17.7748796956        7.0372613918        0.5673584030
  H        18.5494698938        7.8138324695        0.5682254152
  C        17.7918487048       17.8546199273       11.3860313721
  H        18.5669351954       18.6306597393       11.3839769249
 Xe         4.2500440073       10.4437977544       10.4437976999
