     409
 i =     150, E =    -5183.7400351163
  N         2.8800761047        5.2009367738       16.0054404723
  C         1.5621187386        5.4709199791       16.2718799155
  N        13.7124956856        5.1516459569        5.1516425377
  C        12.3898344619        5.4093396929        5.4093396390
  N        19.5660852768       17.5501368102       15.9953127313
  C        20.8835531334       17.2848140062       16.2689544745
  N         8.7521601844       17.6416008090        5.1237677233
  C        10.0682150360       17.3610694064        5.3973455433
  N        19.5618670371        5.1999147938        6.7557265353
  C        20.8792505582        5.4719004204        6.4878980811
  N         8.7521581938        5.1237630206       17.6416097978
  C        10.0682281400        5.3973424211       17.3610768625
  N         2.8763529161       17.5608097968        6.7576690803
  C         1.5597311206       17.2872108385        6.4874638956
  N        13.7171464652       17.5898987569       17.5898989713
  C        12.3945622448       17.3322652744       17.3322640868
  N        15.8864172948        3.0271436819        5.1820528075
  C        16.1532244791        1.7110862986        5.4587510492
  N        15.8305360975       13.8537028817       16.0096979093
  C        16.1008125762       12.5344666460       16.2750786592
  N        15.8845912066       19.7173208390       17.5656593506
  C        16.1527436640       21.0335739097       17.2917264711
  N        15.8283710520        8.8914388191        6.7311973758
  C        16.0999985115       10.2110193420        6.4662218681
  N         6.5518355353       19.7292468820        5.1794121821
  C         6.2850272951       21.0438570442        5.4582210077
  N         6.6009587736        8.8949379252       16.0352613063
  C         6.3344090726       10.2166839645       16.2959468101
  N         6.5566794014        3.0342150633       17.5822966285
  C         6.2921142210        1.7192178995       17.3027359350
  N         6.6143103552       13.8639207706        6.7429698641
  C         6.3431339546       12.5434484509        6.4787786854
  N         5.0225848550       16.0053136583        3.0387342459
  C         5.2901479725       16.2732585830        1.7205808289
  N         5.0420028101        5.2037705943       13.8606948246
  C         5.3152814951        5.4743433448       12.5435671354
  N        17.4237033013       15.9943892601       19.7136768088
  C        17.1583655338       16.2656193173       21.0323689045
  N        17.4001121984        5.1911509725        8.8957111262
  C        17.1261143994        5.4603643032       10.2121435226
  N         5.0169240904        6.7565371625       19.7239267712
  C         5.2832994041        6.4881769466       21.0420749038
  N         5.0295186440       17.5733755280        8.9068111462
  C         5.3065372305       17.2999450511       10.2221927222
  N        17.4246451004        6.7547221564        3.0315909325
  C        17.1580539192        6.4855951649        1.7130361864
  N        17.4025526596       17.5497896037       13.8492589686
  C        17.1270131471       17.2809554172       12.5327498629
  N         5.0153566471        3.0387524187        6.7569331200
  C         5.2819637257        1.7204814334        6.4886873884
  N         5.0372630576       13.8605329004       17.5647083182
  C         5.3103804869       12.5434612061       17.2955526666
  N        17.4236030376       19.7128328352        6.7590150700
  C        17.1580353122       21.0315263591        6.4881535890
  N        17.3989724443        8.8963974785       17.5472019798
  C        17.1244891897       10.2128349290       17.2790954208
  N         5.0244036010       19.7236365262       16.0048538086
  C         5.2914458359       21.0416204905       16.2733762033
  N         5.0362567459        8.9057962634        5.1960727806
  C         5.3123420736       10.2214659945        5.4700837080
  N        17.4241652410        3.0320585292       15.9979428482
  C        17.1580681204        1.7135657874       16.2678457427
  N        17.4038158615       13.8489819306        5.1896967514
  C        17.1287075050       12.5324079070        5.4590750704
  N         2.8804291840       16.0081872028       17.5636972755
  C         1.5630912743       16.2753033812       17.2912170321
  N        13.6885404033       16.0317248319        6.7084302749
  C        12.3759013837       16.3175848387        6.4272226398
  N        19.5655551961       15.9948846611        5.1982067506
  C        20.8824220769       16.2664718321        5.4691727639
  N         8.7372165203       16.0756124829       16.0756107787
  C        10.0585433925       16.3366503874       16.3366486225
  N        19.5620702289        6.7559403400       17.5476718140
  C        20.8799445713        6.4863704859       17.2810024384
  N         8.7340985457        6.6680071578        6.6680055245
  C        10.0552807467        6.4064692177        6.4064679268
  N         2.8764742773        6.7598105863        5.2036851720
  C         1.5590216218        6.4899443545        5.4737691934
  N        13.6885386258        6.7084257864       16.0317322362
  C        12.3759125599        6.4272170836       16.3175938663
  N        15.8856959971        5.1866931177       19.7170044978
  C        16.1532362179        5.4613393356       21.0331048702
  N        15.8273530607       16.0072280655        8.8922818129
  C        16.0983827241       16.2732084984       10.2117589131
  N        15.8842928471       17.5688868690        3.0284424069
  C        16.1522122274       17.2937751150        1.7121324394
  N        15.8315012304        6.7297090044       13.8531640450
  C        16.1024078950        6.4649046624       12.5338715122
  N         6.5481348107        5.1786730436        3.0338621485
  C         6.2830955615        5.4580283798        1.7191440224
  N         6.6079432133       16.0248866694       13.8627056375
  C         6.3377642251       16.2909004512       12.5426055184
  N         6.5610330335       17.5795890247       19.7279187910
  C         6.2944679467       17.3020293075       21.0430971145
  N         6.6087445658        6.7335200785        8.8947767667
  C         6.3404958976        6.4739015820       10.2163652117
  N        19.5620712718       17.5476724434        6.7559395617
  C        20.8799510253       17.2810024193        6.4863675934
  N         8.7551041540       17.6293694288       17.6293658595
  C        10.0710837958       17.3525665568       17.3525634290
  N         2.8764723368        5.2036881838        6.7598099260
  C         1.5590360195        5.4737709677        6.4899444202
  N        13.7147019745        5.1564360531       17.5919273529
  C        12.3919624382        5.4145320604       17.3358376227
  N         2.8804292245       17.5636954943       16.0081900511
  C         1.5630852739       17.2912152925       16.2753055666
  N        13.7146990154       17.5919173237        5.1564378096
  C        12.3919708418       17.3358272184        5.4145354389
  N        19.5655509729        5.1982048383       15.9948873739
  C        20.8824265594        5.4691721200       16.2664725302
  N         8.7490803922        5.1149785486        5.1149783774
  C        10.0657652463        5.3905239868        5.3905243215
  N         6.5610327311       19.7279153398       17.5795886880
  C         6.2944692555       21.0431019695       17.3020287472
  N         6.6087426802        8.8947687275        6.7335202049
  C         6.3405024662       10.2163746553        6.4739030578
  N         6.5481359395        3.0338608132        5.1786688150
  C         6.2830946650        1.7191322447        5.4580244246
  N         6.6079409908       13.8626991346       16.0248908304
  C         6.3377600989       12.5426257120       16.2909051318
  N        15.8842948739        3.0284370825       17.5688886556
  C        16.1522119702        1.7121453832       17.2937741794
  N        15.8314994410       13.8531652395        6.7297139789
  C        16.1024062115       12.5338676269        6.4649056084
  N        15.8856904222       19.7170027261        5.1866909286
  C        16.1532292328       21.0331050463        5.4613352537
  N        15.8273488454        8.8922804849       16.0072260270
  C        16.0983777950       10.2117609370       16.2732070002
  N        17.4236055181        6.7590209414       19.7128346850
  C        17.1580393845        6.4881583322       21.0315267089
  N        17.3989757199       17.5472051240        8.8963979731
  C        17.1244939697       17.2790979416       10.2128407223
  N         5.0153538286        6.7569353058        3.0387562734
  C         5.2819617977        6.4886914332        1.7204719090
  N         5.0372636568       17.5647024409       13.8605303406
  C         5.3103833900       17.2955456958       12.5434875244
  N        17.4241653358       15.9979432072        3.0320559988
  C        17.1580689020       16.2678484855        1.7135833519
  N        17.4038191769        5.1896930467       13.8489828877
  C        17.1287131239        5.4590714155       12.5323960537
  N         5.0244056158       16.0048517383       19.7236355538
  C         5.2914466424       16.2733754693       21.0416274431
  N         5.0362589584        5.1960733794        8.9058007044
  C         5.3123429996        5.4700893317       10.2214721964
  N        17.4237032704       19.7136731414       15.9943835675
  C        17.1583644362       21.0323815601       16.2656126356
  N        17.4001112355        8.8957174670        5.1911453922
  C        17.1261098088       10.2121339580        5.4603625201
  N         5.0225837354        3.0387328644       16.0053197846
  C         5.2901489996        1.7205843152       16.2732628630
  N         5.0420045099       13.8606893396        5.2037721601
  C         5.3152830381       12.5435700665        5.4743393224
  N        17.4246420513        3.0315895696        6.7547219679
  C        17.1580514247        1.7130382057        6.4855955221
  N        17.4025494595       13.8492560573       17.5497904703
  C        17.1270102215       12.5327567882       17.2809567741
  N         5.0169262689       19.7239271346        6.7565391877
  C         5.2833006362       21.0420605735        6.4881762177
  N         5.0295145050        8.9068038183       17.5733814611
  C         5.3065333577       10.2222162066       17.2999500381
  N        19.5618643891        6.7557264645        5.1999157210
  C        20.8792620977        6.4878979102        5.4718998574
  N         8.7346310081        6.6715887250       16.0826346838
  C        10.0559434890        6.4099015941       16.3420839384
  N         2.8763509007        6.7576688852       17.5608128724
  C         1.5597312025        6.4874649336       17.2872116133
  N        13.6881597576        6.7075523964        6.7075500463
  C        12.3750512832        6.4248529221        6.4248520512
  N         2.8800775551       16.0054378467        5.2009390588
  C         1.5621267247       16.2718797309        5.4709214319
  N        13.6913584298       16.0334164410       16.0334173135
  C        12.3786818743       16.3167194750       16.3167193492
  N        19.5660859237       15.9953120804       17.5501360824
  C        20.8835470173       16.2689525207       17.2848154468
  N         8.7346272956       16.0826269340        6.6715924124
  C        10.0559569258       16.3420763431        6.4099058096
  N         6.5566777892       17.5822897706        3.0342169262
  C         6.2921122729       17.3027332634        1.7192243000
  N         6.6143098567        6.7429696910       13.8639222743
  C         6.3431289373        6.4787797943       12.5434647802
  N         6.5518357863        5.1794105593       19.7292539385
  C         6.2850278448        5.4582223451       21.0438510987
  N         6.6009643719       16.0352581821        8.8949347153
  C         6.3344147855       16.2959438335       10.2167106936
  N        15.8845920299       17.5656655609       19.7173206178
  C        16.1527454344       17.2917324627       21.0335886086
  N        15.8283730890        6.7312041768        8.8914388065
  C        16.0999996831        6.4662278757       10.2110112205
  N        15.8864203238        5.1820551611        3.0271400681
  C        16.1532300727        5.4587540497        1.7110929998
  N        15.8305379206       16.0096980055       13.8537019481
  C        16.1008154270       16.2750778124       12.5344751544
 Zn        14.5333825658       14.7283703475       14.7283690639
 Cl        13.3017884533       13.4957121836       13.4957167422
 Zn        14.6033428969        3.8739555933        3.8739420136
 Cl        13.3940628008        2.6292971809        2.6293084888
 Zn         3.7396681221       14.7133471190        3.9085211692
 Cl         2.5149036731       13.4596898810        2.6905955044
 Zn         3.7396688658        3.9085203267       14.7133515594
 Cl         2.5149018145        2.6906014868       13.4596910143
 Zn         7.8977390163        7.9733164392       14.8056354631
 Cl         9.3502381494        9.1458531471       13.7895940395
 Zn         7.8433398925       18.9098410490        3.8531091841
 Cl         9.0044768574       20.1763117812        2.5893939120
 Zn        18.7068380023        8.0497742379        3.9034260490
 Cl        19.9454970870        9.2882480656        2.6839527809
 Zn        18.7067750497       18.8371266153       14.7031808381
 Cl        19.9428863132       20.0601422097       13.4639889583
 Zn         7.8977363512       14.8056286394        7.9733122640
 Cl         9.3502442110       13.7895973977        9.1458451499
 Zn         7.8433398475        3.8531047957       18.9098570123
 Cl         9.0044816783        2.5893839648       20.1763173849
 Zn        18.7067710588       14.7031805509       18.8371281771
 Cl        19.9428925877       13.4639983568       20.0601440588
 Zn        18.7068376872        3.9034238289        8.0497726682
 Cl        19.9454988925        2.6839788207        9.2882734043
 Zn        14.5319433539        8.0093256469        8.0093226425
 Cl        13.2983534864        9.2417978837        9.2417666525
 Zn        14.6013334035       18.8734022499       18.8734019198
 Cl        13.3882969448       20.1157654530       20.1157614254
 Zn         3.7304855720        8.0520142038       18.8601093540
 Cl         2.4963859050        9.2891853667       20.0848561023
 Zn         3.7304857582       18.8601080354        8.0520184970
 Cl         2.4963805091       20.0848538531        9.2891864308
 Zn        14.5324899555       14.7261420711        8.0090498642
 Cl        13.3008696350       13.4905489702        9.2395773855
 Zn        14.6017527748        3.8804021649       18.8761923796
 Cl        13.3900940904        2.6375612563       20.1201608742
 Zn         3.7370689014       14.7145202527       18.8554598345
 Cl         2.5094463686       13.4707609789       20.0809996393
 Zn         3.7332565827        3.9058950082        8.0534880782
 Cl         2.5027874825        2.6866375562        9.2996369448
 Zn         7.8990963662        7.9581759522        7.9581792326
 Cl         9.3639894259        9.0461413709        9.0461030539
 Zn         7.8499709088       18.8984007611       18.8984020502
 Cl         9.0167709733       20.1619035221       20.1618994136
 Zn        18.7047262944        8.0532314768       18.8346811408
 Cl        19.9416818250        9.2920705544       20.0564761680
 Zn        18.7047250812       18.8346818661        8.0532269656
 Cl        19.9416789162       20.0564879768        9.2920556331
 Zn        14.5324830114        8.0090459023       14.7261411770
 Cl        13.3008631939        9.2395685708       13.4905413020
 Zn        14.6017487401       18.8761873630        3.8804075490
 Cl        13.3900953997       20.1201551647        2.6375622932
 Zn         3.7332539482        8.0534880773        3.9058935101
 Cl         2.5027831388        9.2996282407        2.6866287897
 Zn         3.7370682981       18.8554606103       14.7145190439
 Cl         2.5094367909       20.0809949577       13.4707618330
 Zn         7.8964184245       14.7830903692       14.7830950217
 Cl         9.3461106326       13.6854862766       13.6854755133
 Zn         7.8371873194        3.8476841182        3.8476832891
 Cl         8.9869401705        2.5775426673        2.5775420435
 Zn        18.7085240592       14.7060365846        3.9017435738
 Cl        19.9465108239       13.4680807878        2.6802557358
 Zn        18.7085233189        3.9017434169       14.7060385581
 Cl        19.9465095989        2.6802507709       13.4680879320
 Zn         5.8026902434        5.9536907882       16.8170407661
 Zn        16.6287499858       16.7786773358       16.7786758953
 Zn        16.6292957217        5.9587350667        5.9587352927
 Zn         5.8026883589       16.8170371305        5.9536932358
 Zn         5.7994401250        5.9503133348        5.9503145993
 Zn        16.6286634966       16.7782765800        5.9597356858
 Zn         5.8094556860       16.8115243037       16.8115233954
 Zn        16.6286628802        5.9597363396       16.7782777447
  N         3.6246972504        5.9793282796       16.7848709573
  N        14.4466900605        5.9358293284        5.9358250007
  N        18.8192769591       16.7704424622       16.7704454525
  N         7.9967923354       16.8658659118        5.8968895418
  N        18.8153026136        5.9767159620        5.9767191799
  N         7.9967923298        5.8968911174       16.8658689882
  N         3.6246970868       16.7848676125        5.9793311362
  N        14.4503862089       16.8051726438       16.8051735666
  N        16.6550876291        3.7760435475        5.9661213992
  N        16.6179931813       14.5976583279       16.7805260280
  N        16.6528638684       18.9686301235       16.7810578585
  N        16.6152806976        8.1470745955        5.9598310093
  N         5.7844657611       18.9808410780        5.9646170417
  N         5.8127363153        8.1540625799       16.8081627169
  N         5.7888292963        3.7827604684       16.7976345098
  N         5.8270531134       14.6094227958        5.9706998069
  N         5.7888303191       16.7976262748        3.7827611353
  N         5.8270568593        5.9707038589       14.6094297368
  N        16.6528669346       16.7810602744       18.9686317101
  N        16.6152793735        5.9598403723        8.1470715845
  N         5.7844678366        5.9646098724       18.9808430475
  N         5.8127319921       16.8081675376        8.1540661899
  N        16.6550874575        5.9661199864        3.7760424387
  N        16.6179914129       16.7805223155       14.5976588207
  N         5.7813042971        3.7821405687        5.9640059775
  N         5.8218001550       14.6086011952       16.7964531884
  N        16.6535178078       18.9680214674        5.9713922735
  N        16.6146735261        8.1478607841       16.7779839281
  N         5.7925723476       18.9799208440       16.7951650537
  N         5.8196991255        8.1537329537        5.9608122550
  N        16.6533441967        3.7768460925       16.7847793256
  N        16.6186479977       14.5971963344        5.9585545219
  N         3.6271591342       16.7871116092       16.7871126795
  N        14.4478695849       16.8044044080        5.9381764387
  N        18.8171226606       16.7700256691        5.9768186721
  N         7.9999141796       16.8548365306       16.8548339684
  N        18.8171204138        5.9768207771       16.7700305821
  N         7.9952102640        5.8899985191        5.8899970221
  N         3.6225414004        5.9816893151        5.9816924189
  N        14.4478698616        5.9381752392       16.8044110454
  N        16.6535226970        5.9713977277       18.9680226523
  N        16.6146770162       16.7779875098        8.1478610318
  N        16.6533476455       16.7847717436        3.7768473068
  N        16.6186469779        5.9585518714       14.5971955199
  N         5.7813043856        5.9640060575        3.7821435935
  N         5.8217954224       16.7964535228       14.6086029795
  N         5.7925772156       16.7951666413       18.9799221398
  N         5.8197017820        5.9608130950        8.1537406268
  C        11.2103276036       15.7772341170       15.7772339145
  H        11.1908804943       15.0019930735       15.0019939807
  C        11.2364609431        4.8499762108        4.8499784729
  H        11.2522767606        4.0747645234        4.0747698067
  C         0.4038882851       15.7186993299        4.9190990539
  H         0.4059747085       14.9432462178        4.1434380972
  C         0.4038852079        4.9191026444       15.7187055484
  H         0.4059696096        4.1434345424       14.9432487062
  C        11.2071976290        6.9666059896       15.7788864739
  H        11.1871438142        7.7423266968       15.0041884813
  C        11.2398438184       17.9001504602        4.8575126889
  H        11.2572027543       18.6776525559        4.0847170347
  C         0.3990162435        7.0398387330        4.9227448603
  H         0.3984944768        7.8159041119        4.1475131137
  C         0.4032941569       17.8388668866       15.7214852772
  H         0.4028580060       18.6139773432       14.9454344912
  C        11.2071944105       15.7788870703        6.9666036179
  H        11.1871346458       15.0041807767        7.7423346796
  C        11.2398413226        4.8575168169       17.9001530624
  H        11.2572004537        4.0847134292       18.6776641597
  C         0.4032927701       15.7214789524       17.8388725242
  H         0.4028545977       14.9454327829       18.6139787245
  C         0.3990163894        4.9227389072        7.0398482529
  H         0.3984966929        4.1475188320        7.8159056632
  C        11.2077235651        6.9648634639        6.9648618576
  H        11.1891839089        7.7401809091        7.7401767148
  C        11.2421930387       17.8925054276       17.8925024248
  H        11.2587590489       18.6677399955       18.6677361472
  C         0.3981336494        7.0383093225       17.8341712456
  H         0.3950968885        7.8147742609       18.6087912726
  C         0.3981346569       17.8341710831        7.0383052368
  H         0.3950993553       18.6087931978        7.8147715733
  C        15.5440582893       11.3740124785       15.7292839454
  H        14.7618040430       11.3759231376       14.9605413832
  C        15.6078959821        0.5515195418        4.9039299475
  H        14.8401357232        0.5505270421        4.1203159973
  C         4.7581641681       11.3843491153        4.9288443196
  H         3.9754766828       11.3870404292        4.1602176241
  C         4.7474502371        0.5608279603       15.7144325089
  H         3.9811158707        0.5599331477       14.9299751900
  C        15.5458272063       11.3732085601        7.0106383633
  H        14.7635074862       11.3749297480        7.7794080110
  C        15.6069588563        0.5522755309       17.8485256384
  H        14.8385344476        0.5512453984       18.6313601154
  C         4.7531175012       11.3847375128       17.8419941012
  H         3.9710171358       11.3879497494       18.6110732483
  C         4.7398129580        0.5608512059        7.0478225134
  H         3.9740120883        0.5598670940        7.8330440700
  C         6.8943154740       11.3777482677       15.7525378248
  H         7.6882836509       11.3728204637       14.9969263838
  C         6.8278514522        0.5618300272        4.8993561003
  H         7.5905316631        0.5624980398        4.1105693297
  C        17.6831432926       11.3714324475        4.9149766360
  H        18.4659809872       11.3697898885        4.1467629503
  C        17.7031856238        0.5534824929       15.7105984828
  H        18.4713244059        0.5545887560       14.9278688681
  C         6.8987062157       11.3783390501        7.0174990369
  H         7.6900571183       11.3734670586        7.7753727461
  C         6.8379300922        0.5615054426       17.8603679166
  H         7.6018040313        0.5622285549       18.6478671416
  C        17.6813940807       11.3718503781       17.8251074732
  H        18.4642405162       11.3701277991       18.5934408307
  C        17.7024494598        0.5528336657        7.0436205882
  H        18.4699911295        0.5538388240        7.8267429718
  C        15.5440590111       15.7292801172       11.3740086463
  H        14.7618091783       14.9605412112       11.3759169074
  C        15.6078986919        4.9039284510        0.5515129122
  H        14.8401430755        4.1203176504        0.5505186849
  C         4.7474540776       15.7144327839        0.5608270915
  H         3.9811178590       14.9299698541        0.5599315804
  C         4.7581611242        4.9288503136       11.3843578449
  H         3.9754699722        4.1602237747       11.3870442855
  C         6.8943064614       15.7525502985       11.3777502487
  H         7.6882948526       14.9969230359       11.3728209502
  C         6.8278582303        4.8993541754        0.5618357155
  H         7.5905318759        4.1105737677        0.5625056101
  C        17.7031974015       15.7105937314        0.5534805901
  H        18.4713252037       14.9278764121        0.5545843749
  C        17.6831385959        4.9149852570       11.3714253154
  H        18.4659861813        4.1467614890       11.3697789225
  C        15.5458283413        7.0106413233       11.3732113979
  H        14.7635119499        7.7794082121       11.3749390523
  C        15.6069681955       17.8485208932        0.5522798566
  H        14.8385335523       18.6313654560        0.5512499841
  C         4.7398181580        7.0478160280        0.5608522832
  H         3.9740053955        7.8330445107        0.5598658957
  C         4.7531035472       17.8420030660       11.3847415080
  H         3.9710213121       18.6110615025       11.3879538537
  C         6.8987104557        7.0175127184       11.3783479306
  H         7.6900472939        7.7753767570       11.3734736444
  C         6.8379304226       17.8603717763        0.5615105381
  H         7.6017995361       18.6478674854        0.5622354755
  C        17.7024539914        7.0436246103        0.5528387255
  H        18.4699947996        7.8267471753        0.5538527720
  C        17.6813941519       17.8251037185       11.3718551999
  H        18.4642455850       18.5934415073       11.3701362375
 Xe        10.1044550840       11.3595468045       11.3595434490
