     409
 i =     150, E =    -5183.7548827742
  N         2.8663835663        5.1980843402       16.0078349930
  C         1.5481811370        5.4684616150       16.2745177543
  N        13.6863472327        5.1667401551        5.1667362445
  C        12.3673310271        5.4334416645        5.4334380700
  N        19.5501346321       17.5541969870       15.9988185713
  C        20.8679870161       17.2877739149       16.2717793439
  N         8.7305967422       17.6014538801        5.1666305920
  C        10.0484543115       17.3276922457        5.4340199387
  N        19.5474519599        5.1963379201        6.7524958677
  C        20.8651467827        5.4695424875        6.4855751616
  N         8.7305962426        5.1666366743       17.6014509807
  C        10.0484549171        5.4340230454       17.3276890089
  N         2.8631469511       17.5620034460        6.7564023083
  C         1.5459678520       17.2893138987        6.4858145626
  N        13.6923242104       17.5802233667       17.5802178611
  C        12.3726506963       17.3155849547       17.3155841050
  N        15.8553428171        3.0295384434        5.1836240211
  C        16.1245867382        1.7128244213        5.4568872488
  N        15.8227314729       13.8533088874       16.0085788974
  C        16.0922754011       12.5345985984       16.2749393852
  N        15.8551832869       19.7171216506       17.5669138330
  C        16.1251494292       21.0338229195       17.2951118308
  N        15.8241306116        8.8934240621        6.7341053601
  C        16.0938696521       10.2123179965        6.4671974314
  N         6.5529943237       19.7269677287        5.1894994674
  C         6.2841540677       21.0432211067        5.4629345604
  N         6.5891461492        8.9016412173       16.0257467248
  C         6.3201224528       10.2212607244       16.2915347807
  N         6.5590051066        3.0390144705       17.5767924035
  C         6.2924794842        1.7223738590       17.3022593376
  N         6.5931093100       13.8634215968        6.7452645288
  C         6.3235618429       12.5440547681        6.4784079327
  N         5.0167003953       16.0080518380        3.0403537400
  C         5.2852876265       16.2776358421        1.7226504332
  N         5.0273865912        5.1995176643       13.8602957289
  C         5.3004924687        5.4693196529       12.5433828238
  N        17.4005900579       16.0013127635       19.7146935163
  C        17.1345088331       16.2726175496       21.0331457301
  N        17.3876964338        5.1873639277        8.8961774076
  C        17.1155844502        5.4569761509       10.2130033721
  N         5.0092039326        6.7568237220       19.7240079605
  C         5.2764044617        6.4870138071       21.0421342833
  N         5.0220214385       17.5691311049        8.9065143511
  C         5.2962238595       17.2996170998       10.2232146808
  N        17.4024487800        6.7481231809        3.0320204021
  C        17.1345138036        6.4789301038        1.7137615148
  N        17.3880839371       17.5541248257       13.8501580543
  C        17.1148136568       17.2844364806       12.5333298941
  N         5.0086531246        3.0401718909        6.7565133469
  C         5.2760694033        1.7221492395        6.4867513035
  N         5.0241176613       13.8607943396       17.5682741050
  C         5.2972157159       12.5438077369       17.2990740905
  N        17.4009031019       19.7140784338        6.7523263044
  C        17.1344119088       21.0326016272        6.4814408768
  N        17.3852795330        8.8969001447       17.5514450424
  C        17.1128134167       10.2136664533       17.2825484494
  N         5.0176965750       19.7250283322       16.0087193647
  C         5.2859149791       21.0429170668       16.2779059183
  N         5.0258961088        8.9060544491        5.1973138598
  C         5.2997809263       10.2226392277        5.4680605817
  N        17.4019242012        3.0323046695       16.0050234004
  C        17.1345302468        1.7141414250       16.2749398199
  N        17.3901264189       13.8498447010        5.1853226330
  C        17.1173881950       12.5329204214        5.4554593063
  N         2.8665463310       16.0111518203       17.5673472887
  C         1.5488778226       16.2780683405       17.2941380083
  N        13.6811828622       16.0213920465        6.7204475118
  C        12.3652217870       16.2983867982        6.4497283496
  N        19.5500783159       15.9988616320        5.1947969045
  C        20.8672780506       16.2697577317        5.4667014484
  N         8.7281385062       16.0426364491       16.0426303253
  C        10.0464035738       16.3093961937       16.3093924406
  N        19.5466347691        6.7531873472       17.5519893115
  C        20.8649618066        6.4842287852       17.2842452645
  N         8.7278981353        6.7157638787        6.7157531073
  C        10.0451944706        6.4459093890        6.4458996005
  N         2.8639521604        6.7589153421        5.2024061416
  C         1.5462534129        6.4885434369        5.4724324764
  N        13.6811870110        6.7204469085       16.0214003874
  C        12.3652264505        6.4497257283       16.2983928927
  N        15.8554285174        5.1868864953       19.7169313935
  C        16.1250247687        5.4589928567       21.0335280940
  N        15.8211665622       16.0053616133        8.8939569452
  C        16.0906777777       16.2727683567       10.2128890240
  N        15.8550604603       17.5700021129        3.0302688011
  C        16.1247096805       17.2971225885        1.7134530853
  N        15.8256269659        6.7316643106       13.8525334394
  C        16.0953820564        6.4654692832       12.5338898903
  N         6.5511688890        5.1878476671        3.0375549736
  C         6.2832997095        5.4621630396        1.7213085311
  N         6.5902349459       16.0232625316       13.8635478233
  C         6.3206397310       16.2904078685       12.5443729088
  N         6.5611583511       17.5761923247       19.7272726710
  C         6.2935620029       17.3020540012       21.0438373315
  N         6.5926129843        6.7415593125        8.9006157504
  C         6.3232932203        6.4765750671       10.2204147341
  N        19.5466309666       17.5519872196        6.7531910434
  C        20.8649579860       17.2842410984        6.4842288839
  N         8.7336031422       17.5975393065       17.5975372810
  C        10.0509908596       17.3253325396       17.3253304917
  N         2.8639547473        5.2024096458        6.7589142906
  C         1.5462549496        5.4724323692        6.4885442205
  N        13.6893351331        5.1683702815       17.5804922101
  C        12.3700160123        5.4358027439       17.3164499030
  N         2.8665457800       17.5673443635       16.0111620017
  C         1.5488788083       17.2941277409       16.2780819520
  N        13.6893323265       17.5804842011        5.1683709016
  C        12.3700137430       17.3164445019        5.4358051113
  N        19.5500859666        5.1947943283       15.9988634518
  C        20.8672835685        5.4667025850       16.2697614148
  N         8.7273999715        5.1610624838        5.1610563582
  C        10.0457627215        5.4300045187        5.4299983016
  N         6.5611620411       19.7272746985       17.5761948082
  C         6.2935716655       21.0438396088       17.3020481472
  N         6.5926081962        8.9006057390        6.7415535021
  C         6.3232875880       10.2204056589        6.4765766946
  N         6.5511589566        3.0375580587        5.1878559275
  C         6.2832923090        1.7213106317        5.4621644771
  N         6.5902475953       13.8635409549       16.0232570694
  C         6.3206429210       12.5443685739       16.2904080806
  N        15.8550662269        3.0302657622       17.5700017927
  C        16.1247086827        1.7134496925       17.2971169222
  N        15.8256224193       13.8525346681        6.7316585163
  C        16.0953734755       12.5338908212        6.4654657697
  N        15.8554198359       19.7169317084        5.1868854556
  C        16.1250237563       21.0335289576        5.4589849163
  N        15.8211697643        8.8939563686       16.0053715636
  C        16.0906872326       10.2128869590       16.2727821577
  N        17.4009134535        6.7523248137       19.7140810472
  C        17.1344121547        6.4814474804       21.0326031612
  N        17.3852746185       17.5514339588        8.8969006372
  C        17.1128043541       17.2825330928       10.2136641821
  N         5.0086625609        6.7565058362        3.0401770011
  C         5.2760758688        6.4867494840        1.7221522732
  N         5.0241053109       17.5682776983       13.8607924828
  C         5.2972112807       17.2990725786       12.5438072146
  N        17.4019141539       16.0050199391        3.0323079826
  C        17.1345288950       16.2749433935        1.7141442300
  N        17.3901327469        5.1853257098       13.8498432088
  C        17.1173973958        5.4554603093       12.5329165280
  N         5.0176910178       16.0087158917       19.7250305013
  C         5.2859044395       16.2779111502       21.0429179348
  N         5.0259000183        5.1973213347        8.9060574812
  C         5.2997863897        5.4680587062       10.2226441989
  N        17.4005984250       19.7146897751       16.0013021141
  C        17.1345109228       21.0331424588       16.2726032892
  N        17.3877123167        8.8961868149        5.1873523887
  C        17.1155907243       10.2130103258        5.4569699721
  N         5.0166973890        3.0403558340       16.0080485147
  C         5.2852880042        1.7226518732       16.2776279059
  N         5.0273926184       13.8602891467        5.1995167912
  C         5.3004973478       12.5433763164        5.4693240796
  N        17.4024471616        3.0320186770        6.7481212094
  C        17.1345198319        1.7137600033        6.4789247708
  N        17.3880679625       13.8501668074       17.5541250392
  C        17.1148070387       12.5333358238       17.2844406519
  N         5.0092082542       19.7240042083        6.7568230894
  C         5.2764063894       21.0421310912        6.4870118304
  N         5.0220130121        8.9065162546       17.5691420817
  C         5.2962152266       10.2232158197       17.2996247721
  N        19.5474545402        6.7524882055        5.1963455317
  C        20.8651470763        6.4855652781        5.4695526718
  N         8.7281123737        6.7188838879       16.0443014229
  C        10.0459099985        6.4483054499       16.3101496394
  N         2.8631473103        6.7564090499       17.5620041642
  C         1.5459695114        6.4858187550       17.2893150419
  N        13.6809901779        6.7218706252        6.7218594084
  C        12.3645047733        6.4494085195        6.4494002083
  N         2.8663818656       16.0078370385        5.1980747508
  C         1.5481786728       16.2745180929        5.4684554115
  N        13.6811720384       16.0241831179       16.0241778185
  C        12.3657766090       16.2995721646       16.2995712264
  N        19.5501329269       15.9988079601       17.5542100807
  C        20.8679855770       16.2717692906       17.2877843175
  N         8.7281075742       16.0443047603        6.7188767134
  C        10.0459057161       16.3101527212        6.4483020712
  N         6.5590047446       17.5767987304        3.0390112277
  C         6.2924780708       17.3022690553        1.7223702805
  N         6.5931034536        6.7452665309       13.8634270775
  C         6.3235552755        6.4784033709       12.5440630172
  N         6.5529947757        5.1895046337       19.7269669229
  C         6.2841540962        5.4629399831       21.0432200209
  N         6.5891582760       16.0257424820        8.9016433803
  C         6.3201339446       16.2915306479       10.2212635384
  N        15.8551785067       17.5669251637       19.7171250963
  C        16.1251489037       17.2951267506       21.0338264181
  N        15.8241222315        6.7341203884        8.8934256448
  C        16.0938676728        6.4672047949       10.2123167725
  N        15.8553447789        5.1836215760        3.0295392020
  C        16.1245814320        5.4568892963        1.7128238794
  N        15.8227397808       16.0085847910       13.8533130604
  C        16.0922777603       16.2749380998       12.5346003359
 Zn        14.5330411640       14.7262726409       14.7262670392
 Cl        13.2910705400       13.5012186111       13.5012004961
 Zn        14.5637584100        3.8844758708        3.8844780640
 Cl        13.3510333649        2.6420029503        2.6420027200
 Zn         3.7308596050       14.7153372290        3.9056944787
 Cl         2.5018325009       13.4730735804        2.6798373430
 Zn         3.7308574981        3.9056992630       14.7153426499
 Cl         2.5018362725        2.6798378884       13.4730804880
 Zn         7.8833357250        8.0156571058       14.7559555479
 Cl         9.1670573747        9.2363104945       13.5691964355
 Zn         7.8457482914       18.8837779983        3.8871954444
 Cl         9.0402924970       20.1349378048        2.6364666495
 Zn        18.6860700267        8.0438451387        3.8992418069
 Cl        19.9208503311        9.2824174795        2.6753952646
 Zn        18.6840399950       18.8425880203       14.7087842298
 Cl        19.9178235940       20.0681588176       13.4693903160
 Zn         7.8833308785       14.7559569149        8.0156477352
 Cl         9.1670617057       13.5691938272        9.2362838559
 Zn         7.8457499900        3.8871923465       18.8837793902
 Cl         9.0402984743        2.6364638856       20.1349418412
 Zn        18.6840050563       14.7087796516       18.8426056873
 Cl        19.9177968852       13.4693702198       20.0681558125
 Zn        18.6860258584        3.8992481606        8.0438474211
 Cl        19.9208294280        2.6754256874        9.2824166894
 Zn        14.5370107154        8.0145422412        8.0145311569
 Cl        13.2925993427        9.2395594815        9.2395352388
 Zn        14.5642441682       18.8686690678       18.8686621255
 Cl        13.3470830316       20.1082658316       20.1082714299
 Zn         3.7245614043        8.0517180203       18.8565736495
 Cl         2.4887820591        9.2846140806       20.0851367641
 Zn         3.7245658834       18.8565566857        8.0517224593
 Cl         2.4887904904       20.0851207988        9.2846240215
 Zn        14.5353473071       14.7228330657        8.0122941536
 Cl        13.2922408150       13.4967796181        9.2363749418
 Zn        14.5637304102        3.8874742356       18.8706909725
 Cl        13.3478933885        2.6468256013       20.1111785618
 Zn         3.7292481054       14.7174297340       18.8604175044
 Cl         2.4973155329       13.4808221707       20.0891048461
 Zn         3.7268303187        3.9071892327        8.0531275754
 Cl         2.4936323306        2.6821118146        9.2918021618
 Zn         7.8852561896        8.0104225370        8.0104205066
 Cl         9.1735894724        9.2114843649        9.2114543634
 Zn         7.8499991391       18.8808601397       18.8808597043
 Cl         9.0500571505       20.1290500217       20.1290496891
 Zn        18.6817242090        8.0482191027       18.8398433861
 Cl        19.9165046246        9.2865876109       20.0648406217
 Zn        18.6817203934       18.8398480713        8.0482264671
 Cl        19.9164993059       20.0648490495        9.2865978203
 Zn        14.5353189868        8.0123021948       14.7228303590
 Cl        13.2922306840        9.2363934585       13.4967596152
 Zn        14.5637186483       18.8706885112        3.8874756377
 Cl        13.3478796681       20.1111854239        2.6468375950
 Zn         3.7268331122        8.0531183702        3.9071798511
 Cl         2.4936334378        9.2917833141        2.6820955184
 Zn         3.7292428656       18.8604406872       14.7174340157
 Cl         2.4972975466       20.0891147100       13.4808208056
 Zn         7.8816847185       14.7506202139       14.7505976921
 Cl         9.1610170126       13.5444460490       13.5444287396
 Zn         7.8414054852        3.8821194330        3.8821328311
 Cl         9.0292477374        2.6278774741        2.6278927011
 Zn        18.6877690235       14.7114306984        3.8978901794
 Cl        19.9216496906       13.4731023679        2.6724488272
 Zn        18.6877765300        3.8978900301       14.7114293354
 Cl        19.9216574271        2.6724574271       13.4730926534
 Zn         5.7924262568        5.9636310533       16.8006368145
 Zn        16.6141514504       16.7808322279       16.7808205898
 Zn        16.6157179868        5.9581319800        5.9581244593
 Zn         5.7924321504       16.8006418708        5.9636201508
 Zn         5.7910207610        5.9621476901        5.9621428177
 Zn        16.6147498991       16.7804727722        5.9583756582
 Zn         5.7942547277       16.7997496749       16.7997905535
 Zn        16.6147622118        5.9583734461       16.7804764642
  N         3.6110110942        5.9772893932       16.7863804971
  N        14.4302499360        5.9459651854        5.9459673608
  N        18.8035181229       16.7747942270       16.7748058110
  N         7.9825575191       16.8242128641        5.9443186218
  N        18.8010487776        5.9726275160        5.9726340305
  N         7.9825590287        5.9443267035       16.8242092079
  N         3.6110096413       16.7863793400        5.9772822457
  N        14.4330364317       16.7993218273       16.7993134644
  N        16.6284762391        3.7771572954        5.9647597831
  N        16.6063944521       14.5981186621       16.7820389384
  N        16.6266434106       18.9691878157       16.7843688200
  N        16.6067193393        8.1481281924        5.9598847199
  N         5.7815991232       18.9791847385        5.9718091636
  N         5.8040976427        8.1573242505       16.7985306336
  N         5.7872036405        3.7860036736       16.7940911720
  N         5.8091185409       14.6084923881        5.9713490300
  N         5.7872125124       16.7940887149        3.7859998233
  N         5.8091102706        5.9713542340       14.6084980010
  N        16.6266339290       16.7843768295       18.9691908015
  N        16.6067012831        5.9598974744        8.1481232483
  N         5.7815883986        5.9718051039       18.9791858975
  N         5.8041102032       16.7985241713        8.1573232961
  N        16.6284852616        5.9647526858        3.7771582460
  N        16.6064098045       16.7820445192       14.5981157085
  N         5.7800088814        3.7851572708        5.9705346692
  N         5.8061630184       14.6087920712       16.7964643155
  N        16.6270376224       18.9687803408        5.9689945528
  N        16.6043771665        8.1487066096       16.7789674636
  N         5.7891746273       18.9797691174       16.7940901517
  N         5.8078088496        8.1565757621        5.9677684726
  N        16.6278168746        3.7776124847       16.7880883563
  N        16.6084552557       14.5975872554        5.9575728646
  N         3.6128198319       16.7906857664       16.7906916158
  N        14.4316602501       16.7974839705        5.9454313643
  N        18.8018499820       16.7747045762        5.9732068610
  N         7.9841638408       16.8206865001       16.8206828184
  N        18.8018561386        5.9732015537       16.7747066600
  N         7.9808351158        5.9392548293        5.9392604338
  N         3.6101112571        5.9806412688        5.9806381675
  N        14.4316644843        5.9454308299       16.7974930106
  N        16.6270536642        5.9689893314       18.9687822910
  N        16.6043738806       16.7789574171        8.1487070067
  N        16.6278047352       16.7880832415        3.7776162144
  N        16.6084586332        5.9575761013       14.5975854705
  N         5.7800113261        5.9705152827        3.7851592788
  N         5.8061475461       16.7964705070       14.6087961427
  N         5.7891748498       16.7940803536       18.9797716870
  N         5.8078165210        5.9677745200        8.1565815878
  C        11.2016227489       15.7539885176       15.7539848214
  H        11.1926307185       14.9783982057       14.9783890474
  C        11.2081006401        4.8810733223        4.8810679670
  H        11.2118640922        4.1055905296        4.1055838116
  C         0.3892136741       15.7221153933        4.9168448772
  H         0.3914802101       14.9470123671        4.1408429067
  C         0.3892182094        4.9168505023       15.7221130036
  H         0.3914798263        4.1408557522       14.9470033297
  C        11.2025695436        6.9986299385       15.7528633997
  H        11.1959632927        7.7736052086       14.9766228028
  C        11.2121802929       17.8735934489        4.8853237748
  H        11.2180261534       18.6504991668        4.1112983741
  C         0.3856341478        7.0378455853        4.9211675645
  H         0.3854010739        7.8136590990        4.1458762740
  C         0.3884012740       17.8412540496       15.7244239611
  H         0.3883372088       18.6163701535       14.9484221907
  C        11.2025615529       15.7528624071        6.9986300044
  H        11.1959445532       14.9766214073        7.7736048946
  C        11.2121780386        4.8853235673       17.8735932756
  H        11.2180158084        4.1112970935       18.6504976733
  C         0.3883975916       15.7244112026       17.8412635991
  H         0.3883101732       14.9484076767       18.6163780773
  C         0.3856393802        4.9211620366        7.0378508064
  H         0.3854190705        4.1458708267        7.8136646501
  C        11.2032738299        6.9981443324        6.9981302559
  H        11.1988917607        7.7737503414        7.7737287819
  C        11.2162580127       17.8709346092       17.8709321503
  H        11.2244792163       18.6463915564       18.6463836202
  C         0.3839057018        7.0363252903       17.8362101962
  H         0.3813126257        7.8130241869       18.6106256161
  C         0.3839021830       17.8362071311        7.0363203692
  H         0.3813035624       18.6106264270        7.8130154871
  C        15.5374361619       11.3745155245       15.7269328099
  H        14.7570962336       11.3760719105       14.9562658061
  C        15.5778043715        0.5526172896        4.9038159592
  H        14.8075194964        0.5516130700        4.1229346264
  C         4.7462385977       11.3834642526        4.9223909906
  H         3.9656626711       11.3844074976        4.1517698907
  C         4.7398715650        0.5625661963       15.7218894202
  H         3.9705334247        0.5620879405       14.9402149462
  C        15.5408384992       11.3737707413        7.0137065475
  H        14.7606842387       11.3752335464        7.7846772533
  C        15.5780477370        0.5530884511       17.8501840037
  H        14.8074852138        0.5521125537       18.6307169119
  C         4.7426260466       11.3838593341       17.8456900111
  H         3.9618235198       11.3845568233       18.6160628809
  C         4.7302508344        0.5621035438        7.0424889047
  H         3.9608776045        0.5619223798        7.8240978939
  C         6.8754200249       11.3824101856       15.7457381498
  H         7.6590765440       11.3813193351       14.9785968276
  C         6.8298891566        0.5622653761        4.9069383212
  H         7.5977495591        0.5623613263        4.1235295786
  C        17.6702873469       11.3722411850        4.9092194595
  H        18.4505296415       11.3708647140        4.1383872400
  C        17.6815961053        0.5541135140       15.7196944681
  H        18.4521553746        0.5552100821       14.9391699514
  C         6.8779889380       11.3817306885        7.0230091432
  H         7.6610621828       11.3804456092        7.7906493111
  C         6.8394463424        0.5632972242       17.8574220832
  H         7.6075196738        0.5637351727       18.6405866697
  C        17.6678741915       11.3726467762       17.8304459792
  H        18.4485206329       11.3710087437       18.6009859216
  C        17.6814668841        0.5536669054        7.0342625325
  H        18.4521221737        0.5546901565        7.8146245235
  C        15.5374296806       15.7269230437       11.3745239533
  H        14.7570896699       14.9562541355       11.3760989960
  C        15.5778016093        4.9038209282        0.5526140224
  H        14.8075215030        4.1229345827        0.5515912200
  C         4.7398646469       15.7218978223        0.5625693052
  H         3.9705271764       14.9402228570        0.5621049431
  C         4.7462392420        4.9223845424       11.3834657825
  H         3.9656645764        4.1517616588       11.3843940930
  C         6.8754257667       15.7457355997       11.3824160672
  H         7.6590822534       14.9785929846       11.3813192722
  C         6.8298933335        4.9069427641        0.5622628871
  H         7.5977524666        4.1235336168        0.5623560085
  C        17.6815954574       15.7197031409        0.5541149887
  H        18.4521521005       14.9391758036        0.5552078541
  C        17.6702895448        4.9092212727       11.3722286428
  H        18.4505320720        4.1383875596       11.3708212639
  C        15.5408456046        7.0137105647       11.3737712731
  H        14.7606931553        7.7846813854       11.3752248967
  C        15.5780499069       17.8501955195        0.5530960519
  H        14.8074860687       18.6307264169        0.5521333977
  C         4.7302510969        7.0424896886        0.5621117240
  H         3.9608733203        7.8240953013        0.5619391151
  C         4.7426276709       17.8456815084       11.3838529919
  H         3.9618211938       18.6160493919       11.3845376863
  C         6.8779879403        7.0230048834       11.3817427253
  H         7.6610584422        7.7906460187       11.3804711922
  C         6.8394396733       17.8574326231        0.5632912808
  H         7.6075136433       18.6405974305        0.5637225878
  C        17.6814609344        7.0342704847        0.5536715228
  H        18.4521165609        7.8146318007        0.5547002028
  C        17.6678740927       17.8304326894       11.3726353702
  H        18.4485244002       18.6009669731       11.3709682958
 Xe        11.1492329219       11.3752503805       11.3752683820
