     409
 i =     150, E =    -5183.7488320107
  N         2.8854004681        5.2034836255       16.0005452470
  C         1.5671599333        5.4715422685       16.2688149392
  N        13.7143710004        5.1518654906        5.1518663654
  C        12.3922628469        5.4113779657        5.4113792455
  N        19.5705583020       17.5506799049       15.9956494773
  C        20.8880497362       17.2849091673       16.2690223672
  N         8.7530170427       17.6279060736        5.1385236591
  C        10.0706232518       17.3517820337        5.4081285226
  N        19.5659789715        5.1990738655        6.7549723950
  C        20.8833396714        5.4717907081        6.4877253104
  N         8.7530174057        5.1385205759       17.6279147856
  C        10.0706241424        5.4081255232       17.3517876469
  N         2.8820109301       17.5542159379        6.7605197096
  C         1.5649539152       17.2836271455        6.4886207973
  N        13.7214903166       17.5901235645       17.5901236156
  C        12.3994571770       17.3311073725       17.3311057099
  N        15.8880920529        3.0269706783        5.1820667577
  C        16.1546386006        1.7109421118        5.4589369987
  N        15.8357317235       13.8535039546       16.0102756723
  C        16.1051668973       12.5342659393       16.2762089980
  N        15.8874059541       19.7173929982       17.5659054070
  C        16.1548471603       21.0336520584       17.2914727319
  N        15.8330946772        8.8914589830        6.7305515545
  C        16.1042044579       10.2110098184        6.4652982865
  N         6.5557149080       19.7263394665        5.1840553504
  C         6.2869718601       21.0414360438        5.4607790936
  N         6.6168018109        8.9004187979       16.0195968288
  C         6.3463877940       10.2201154445       16.2829559808
  N         6.5618107577        3.0354864285       17.5780673379
  C         6.2953273518        1.7199509719       17.3010754839
  N         6.6267745546       13.8603414010        6.7555756401
  C         6.3525988115       12.5416907387        6.4896002888
  N         5.0272602548       16.0018843121        3.0397672264
  C         5.2929646962       16.2718047878        1.7212060807
  N         5.0556683805        5.2137620402       13.8607209772
  C         5.3261965890        5.4838651350       12.5428569955
  N        17.4266931338       15.9947709787       19.7140432778
  C        17.1605412128       16.2654750412       21.0326655528
  N        17.4040546964        5.1900405367        8.8956418675
  C        17.1299540101        5.4590509045       10.2121166094
  N         5.0209488841        6.7615336101       19.7207756110
  C         5.2853105934        6.4909840118       21.0394932077
  N         5.0442992379       17.5581321622        8.9068263657
  C         5.3186453167       17.2870890880       10.2234013172
  N        17.4269291392        6.7541741815        3.0312941995
  C        17.1598639788        6.4854357630        1.7126906438
  N        17.4067991177       17.5510289713       13.8489980042
  C        17.1308937008       17.2825347244       12.5324922657
  N         5.0187483858        3.0386505611        6.7596651396
  C         5.2840010578        1.7198911479        6.4902503070
  N         5.0501475565       13.8619489595       17.5544703385
  C         5.3216716197       12.5445155456       17.2850141837
  N        17.4265658151       19.7127459878        6.7583012489
  C        17.1601539486       21.0314573084        6.4879149282
  N        17.4032206983        8.8961684784       17.5483827427
  C        17.1283943749       10.2126472561       17.2806683781
  N         5.0288823491       19.7222605288       16.0022005799
  C         5.2940960963       21.0408784127       16.2721057884
  N         5.0490275385        8.9044039666        5.2061844625
  C         5.3229716374       10.2208580273        5.4797123998
  N        17.4265345713        3.0320260629       15.9980982832
  C        17.1598827539        1.7136210350       16.2676315635
  N        17.4079661568       13.8488788840        5.1886925998
  C        17.1326177428       12.5322901634        5.4577983589
  N         2.8855003583       16.0056301929       17.5604704225
  C         1.5678668443       16.2739668630       17.2898178844
  N        13.6963804680       16.0312103546        6.7088514496
  C        12.3829583606       16.3147696226        6.4306744845
  N        19.5700214049       15.9953674107        5.1968857809
  C        20.8870146565       16.2661565832        5.4682974659
  N         8.7481103509       16.0672095271       16.0672116052
  C        10.0674685406       16.3319314619       16.3319325622
  N        19.5669996297        6.7550773306       17.5479995508
  C        20.8849171350        6.4857603784       17.2804649746
  N         8.7424553493        6.6795494900        6.6795474586
  C        10.0615214034        6.4131611114        6.4131613050
  N         2.8811424038        6.7628031382        5.2068177217
  C         1.5635623020        6.4915660910        5.4755168437
  N        13.6963825603        6.7088541527       16.0312128777
  C        12.3829605869        6.4306745084       16.3147710292
  N        15.8876731366        5.1867899368       19.7165747843
  C        16.1548408013        5.4615674728       21.0326669437
  N        15.8325027065       16.0078063625        8.8922197066
  C        16.1027560466       16.2743717877       10.2116355202
  N        15.8862169195       17.5687252503        3.0286651297
  C        16.1538534273       17.2933876241        1.7123575480
  N        15.8365246976        6.7292334511       13.8530133349
  C        16.1067517896        6.4639987940       12.5337629763
  N         6.5513235639        5.1807100222        3.0331670571
  C         6.2848074417        5.4594488197        1.7181385944
  N         6.6227209696       16.0152774302       13.8628285128
  C         6.3493027160       16.2806385340       12.5440841346
  N         6.5655274058       17.5771240398       19.7273741766
  C         6.2972481838       17.3008367936       21.0428425474
  N         6.6217712818        6.7456541272        8.8965415899
  C         6.3501045218        6.4845425095       10.2165246648
  N        19.5670017868       17.5479995697        6.7550761352
  C        20.8849194831       17.2804631718        6.4857614690
  N         8.7587656016       17.6216485913       17.6216478104
  C        10.0759722377       17.3477868162       17.3477853398
  N         2.8811442506        5.2068161444        6.7628047374
  C         1.5635626796        5.4755153958        6.4915674216
  N        13.7164441634        5.1569117328       17.5913031169
  C        12.3945247746        5.4179185165       17.3329665121
  N         2.8855012197       17.5604693433       16.0056304099
  C         1.5678674301       17.2898177335       16.2739671110
  N        13.7164400037       17.5912986828        5.1569076523
  C        12.3945218846       17.3329642661        5.4179174872
  N        19.5700168776        5.1968866860       15.9953664288
  C        20.8870118622        5.4682960225       16.2661577986
  N         8.7496358982        5.1250070311        5.1250052950
  C        10.0677302900        5.3973524289        5.3973524411
  N         6.5655248161       19.7273670586       17.5771243999
  C         6.2972467523       21.0428345232       17.3008345752
  N         6.6217695506        8.8965462633        6.7456522029
  C         6.3501097103       10.2165301048        6.4845347595
  N         6.5513209671        3.0331524380        5.1807113753
  C         6.2848055158        1.7181245968        5.4594502719
  N         6.6227217507       13.8628368608       16.0152819175
  C         6.3492983788       12.5440917848       16.2806397829
  N        15.8862149322        3.0286593712       17.5687228789
  C        16.1538487955        1.7123517701       17.2933807662
  N        15.8365236331       13.8530188870        6.7292298906
  C        16.1067521147       12.5337687741        6.4639973978
  N        15.8876731184       19.7165728346        5.1867902747
  C        16.1548409912       21.0326630588        5.4615689347
  N        15.8324981209        8.8922219114       16.0078064459
  C        16.1027524469       10.2116389297       16.2743705780
  N        17.4265646027        6.7583028604       19.7127522356
  C        17.1601533943        6.4879140035       21.0314624850
  N        17.4032245089       17.5483827448        8.8961643317
  C        17.1283973239       17.2806699439       10.2126438457
  N         5.0187519420        6.7596644659        3.0386639100
  C         5.2840033865        6.4902480524        1.7199049689
  N         5.0501450299       17.5544647888       13.8619403828
  C         5.3216748019       17.2850127143       12.5445074171
  N        17.4265352432       15.9981002360        3.0320295584
  C        17.1598861562       16.2676381489        1.7136257945
  N        17.4079689710        5.1886971549       13.8488745208
  C        17.1326187528        5.4578000736       12.5322851098
  N         5.0288845729       16.0022023262       19.7222694966
  C         5.2940972955       16.2721084857       21.0408867070
  N         5.0490345519        5.2061784706        8.9043985985
  C         5.3229694476        5.4797173264       10.2208528332
  N        17.4266971747       19.7140387270       15.9947685518
  C        17.1605411940       21.0326597044       16.2654679298
  N        17.4040505420        8.8956455220        5.1900403940
  C        17.1299514812       10.2121220791        5.4590524549
  N         5.0272558682        3.0397584526       16.0018818079
  C         5.2929610892        1.7211987234       16.2718004617
  N         5.0556673091       13.8607239836        5.2137647590
  C         5.3262071908       12.5428601738        5.4838563831
  N        17.4269321430        3.0312874483        6.7541799407
  C        17.1598667975        1.7126849712        6.4854416909
  N        17.4067935357       13.8490018711       17.5510302380
  C        17.1308891529       12.5324961226       17.2825333258
  N         5.0209459105       19.7207633556        6.7615381255
  C         5.2853073053       21.0394805290        6.4909892159
  N         5.0443016614        8.9068298898       17.5581355708
  C         5.3186407849       10.2234063592       17.2870871073
  N        19.5659769578        6.7549692382        5.1990810622
  C        20.8833392290        6.4877203106        5.4717977281
  N         8.7444363914        6.6886825885       16.0687397711
  C        10.0636017508        6.4212044967       16.3331460681
  N         2.8820109148        6.7605187116       17.5542142364
  C         1.5649533579        6.4886175866       17.2836262531
  N        13.6944493683        6.7076961242        6.7076938692
  C        12.3809752197        6.4268064860        6.4268063236
  N         2.8854052485       16.0005485438        5.2034856867
  C         1.5671619600       16.2688162517        5.4715457399
  N        13.6994374036       16.0338020328       16.0338017209
  C        12.3864567121       16.3155779360       16.3155772709
  N        19.5705555052       15.9956556015       17.5506739533
  C        20.8880490887       16.2690284851       17.2849029053
  N         8.7444347880       16.0687311008        6.6886835692
  C        10.0636000272       16.3331399728        6.4212075468
  N         6.5618156049       17.5780664645        3.0354923042
  C         6.2953313146       17.3010789347        1.7199578059
  N         6.6267832189        6.7555712087       13.8603404197
  C         6.3525908062        6.4896077674       12.5416876342
  N         6.5557172301        5.1840506109       19.7263508499
  C         6.2869752741        5.4607743958       21.0414492157
  N         6.6167977377       16.0195953739        8.9004123671
  C         6.3463923913       16.2829588530       10.2201090848
  N        15.8874010878       17.5659068145       19.7173989622
  C        16.1548468111       17.2914798240       21.0336583855
  N        15.8330986544        6.7305517004        8.8914531652
  C        16.1042068172        6.4652963620       10.2110038383
  N        15.8880896613        5.1820600656        3.0269743273
  C        16.1546362647        5.4589308974        1.7109465569
  N        15.8357368510       16.0102750729       13.8535001625
  C        16.1051714149       16.2762102373       12.5342622079
 Zn        14.5410221898       14.7289460312       14.7289427476
 Cl        13.3091103356       13.4966692769       13.4966711745
 Zn        14.6042509411        3.8739854341        3.8739920604
 Cl        13.3950054115        2.6294111112        2.6294233248
 Zn         3.7488590216       14.7094693499        3.9155775740
 Cl         2.5259300177       13.4531714043        2.6979085673
 Zn         3.7488525186        3.9155668544       14.7094656630
 Cl         2.5259275140        2.6979009046       13.4531586180
 Zn         7.9254529572        8.0023950837       14.7738644137
 Cl         9.4070078334        9.1502792757       13.7498031769
 Zn         7.8474208291       18.8972893827        3.8646997619
 Cl         9.0119235421       20.1649760290        2.6034831771
 Zn        18.7099553702        8.0488882870        3.9025280956
 Cl        19.9481353121        9.2870311827        2.6821237290
 Zn        18.7101664036       18.8380690064       14.7037374603
 Cl        19.9457527101       20.0614878315       13.4644796179
 Zn         7.9254248358       14.7738620338        8.0023894404
 Cl         9.4069954045       13.7498153648        9.1502609541
 Zn         7.8474201496        3.8646867996       18.8973065053
 Cl         9.0119343916        2.6034624984       20.1649791098
 Zn        18.7101642968       14.7037432109       18.8380681080
 Cl        19.9457601425       13.4644912036       20.0614841866
 Zn        18.7099573797        3.9025245538        8.0488895990
 Cl        19.9481361860        2.6821219914        9.2870342837
 Zn        14.5390660392        8.0090645579        8.0090633620
 Cl        13.3081759422        9.2426618581        9.2426736733
 Zn        14.6036088642       18.8738035947       18.8738042796
 Cl        13.3895908750       20.1155449015       20.1155359216
 Zn         3.7381947613        8.0559468965       18.8444317168
 Cl         2.5063264252        9.2961702574       20.0694592687
 Zn         3.7381923164       18.8444165421        8.0559475626
 Cl         2.5063403771       20.0694570871        9.2961698846
 Zn        14.5404459701       14.7263080904        8.0089673035
 Cl        13.3095431251       13.4909749630        9.2400133360
 Zn        14.6026316838        3.8807891476       18.8758372615
 Cl        13.3914442924        2.6378069341       20.1198482408
 Zn         3.7446408488       14.7120384722       18.8457360866
 Cl         2.5196837945       13.4660004462       20.0722479338
 Zn         3.7405785136        3.9130704195        8.0563080585
 Cl         2.5112088798        2.6960118750        9.3059840770
 Zn         7.9283015086        7.9844618279        7.9844511546
 Cl         9.4179594825        9.0665703960        9.0665685339
 Zn         7.8533853102       18.8926343511       18.8926396805
 Cl         9.0247146751       20.1542973621       20.1542890910
 Zn        18.7086539932        8.0521457995       18.8352253857
 Cl        19.9447922228        9.2912017021       20.0575439457
 Zn        18.7086563958       18.8352233800        8.0521425588
 Cl        19.9447845834       20.0575456298        9.2912035350
 Zn        14.5404428031        8.0089693468       14.7263038063
 Cl        13.3095423438        9.2400139829       13.4909651899
 Zn        14.6026320352       18.8758345790        3.8807941416
 Cl        13.3914510114       20.1198481545        2.6378107748
 Zn         3.7405787442        8.0563081755        3.9130780796
 Cl         2.5112041444        9.3059815154        2.6960228098
 Zn         3.7446375833       18.8457298713       14.7120335513
 Cl         2.5196877939       20.0722441925       13.4659896697
 Zn         7.9251136895       14.7662014811       14.7662016068
 Cl         9.3937769125       13.6697793789       13.6697833279
 Zn         7.8399618570        3.8537282957        3.8537368994
 Cl         8.9947758235        2.5856033609        2.5856048330
 Zn        18.7115384090       14.7064693091        3.9009117964
 Cl        19.9484912566       13.4684383648        2.6784111080
 Zn        18.7115372946        3.9009109308       14.7064662521
 Cl        19.9484876475        2.6784035602       13.4684379355
 Zn         5.8184940986        5.9589758932       16.8089380933
 Zn        16.6371071635       16.7793098569       16.7793089413
 Zn        16.6350838934        5.9579787696        5.9579815327
 Zn         5.8185061787       16.8089562602        5.9589768239
 Zn         5.8099309440        5.9541722823        5.9541760184
 Zn        16.6355243689       16.7789097453        5.9588983050
 Zn         5.8252672102       16.8066239949       16.8066143584
 Zn        16.6355274134        5.9588990218       16.7789092619
  N         3.6306104723        5.9830433071       16.7779481428
  N        14.4508404773        5.9350741713        5.9350727941
  N        18.8239000110       16.7710318952       16.7710275550
  N         8.0024782835       16.8500056525        5.9146076252
  N        18.8195134905        5.9755942576        5.9755981872
  N         8.0024780088        5.9146077512       16.8500146397
  N         3.6306127169       16.7779524911        5.9830422462
  N        14.4566651553       16.8062917264       16.8062922230
  N        16.6573358147        3.7757197438        5.9656593210
  N        16.6230202821       14.5974891042       16.7811769330
  N        16.6562411777       18.9688771743       16.7816876460
  N        16.6197247870        8.1470307597        5.9591412168
  N         5.7897441316       18.9778603825        5.9706095933
  N         5.8294362473        8.1566531834       16.7919650529
  N         5.7950030804        3.7839318948       16.7924201466
  N         5.8417125290       14.6076327608        5.9819440922
  N         5.7950088857       16.7924181734        3.7839383866
  N         5.8417174748        5.9819430089       14.6076289482
  N        16.6562348986       16.7816863313       18.9688828540
  N        16.6197290100        5.9591430231        8.1470255609
  N         5.7897465426        5.9706042277       18.9778707737
  N         5.8294318842       16.7919637832        8.1566477537
  N        16.6573334609        5.9656534147        3.7757248652
  N        16.6230265005       16.7811753905       14.5974853245
  N         5.7855668911        3.7820436411        5.9670374388
  N         5.8366324529       14.6093870441       16.7871389002
  N        16.6563729662       18.9678193055        5.9708546235
  N        16.6195910221        8.1476446385       16.7785455222
  N         5.7982058322       18.9789250860       16.7918524539
  N         5.8346838387        8.1535173102        5.9710903893
  N        16.6558378293        3.7768842725       16.7849736777
  N        16.6234278119       14.5971558112        5.9580316852
  N         3.6327255707       16.7834276369       16.7834284378
  N        14.4527514469       16.8049788265        5.9371508084
  N        18.8219035743       16.7707803381        5.9755561293
  N         8.0072322362       16.8453060302       16.8453069308
  N        18.8219011753        5.9755581655       16.7707781164
  N         7.9995508319        5.9023313429        5.9023279506
  N         3.6276911279        5.9853455315        5.9853478733
  N        14.4527542965        5.9371552115       16.8049838705
  N        16.6563714083        5.9708553727       18.9678235127
  N        16.6195961592       16.7785453014        8.1476413218
  N        16.6558373505       16.7849733768        3.7768888463
  N        16.6234305248        5.9580371331       14.5971508515
  N         5.7855715276        5.9670364689        3.7820566323
  N         5.8366281060       16.7871329862       14.6093788009
  N         5.7982089995       16.7918524171       18.9789321407
  N         5.8346885831        5.9710868708        8.1535122334
  C        11.2203783658       15.7742326965       15.7742351772
  H        11.2028103223       14.9989028968       14.9989094402
  C        11.2364684897        4.8542319945        4.8542324749
  H        11.2490501602        4.0789888581        4.0789887432
  C         0.4084403905       15.7175181839        4.9187263692
  H         0.4098955817       14.9422018004        4.1429520016
  C         0.4084358337        4.9187231542       15.7175191563
  H         0.4098846122        4.1429481666       14.9422025218
  C        11.2178661868        6.9738155346       15.7731741365
  H        11.2020641570        7.7491470865       14.9979022202
  C        11.2391722836       17.8941564970        4.8643311704
  H        11.2514654745       18.6716130641        4.0912543195
  C         0.4033631011        7.0405229772        4.9234753770
  H         0.4025916356        7.8166330296        4.1484451838
  C         0.4079597036       17.8383067744       15.7210345357
  H         0.4073807736       18.6133116735       14.9448911626
  C        11.2178657825       15.7731701087        6.9738170473
  H        11.2020662494       14.9978962653        7.7491458542
  C        11.2391760854        4.8643316133       17.8941606563
  H        11.2514723161        4.0912590220       18.6716207464
  C         0.4079558134       15.7210372805       17.8383035779
  H         0.4073636098       14.9448951430       18.6133084189
  C         0.4033659373        4.9234703523        7.0405257473
  H         0.4026062348        4.1484385254        7.8166346216
  C        11.2160292584        6.9691817887        6.9691808420
  H        11.2001813708        7.7444713432        7.7444659505
  C        11.2453674900       17.8897443042       17.8897422023
  H        11.2591793260       18.6650066882       18.6650058573
  C         0.4034987917        7.0384477570       17.8320364012
  H         0.4006677626        7.8152542548       18.6064181331
  C         0.4035002154       17.8320356988        7.0384511880
  H         0.4006629601       18.6064181307        7.8152575999
  C        15.5484016962       11.3738462936       15.7303255625
  H        14.7664298137       11.3756808202       14.9613059685
  C        15.6090669229        0.5511732526        4.9043841446
  H        14.8411463664        0.5500750094        4.1210455049
  C         4.7686905421       11.3835688664        4.9380214321
  H         3.9862201746       11.3865084818        4.1689309637
  C         4.7499992051        0.5607475850       15.7138916892
  H         3.9838898317        0.5600212824       14.9292385532
  C        15.5501289639       11.3731935791        7.0098530717
  H        14.7680765821       11.3749587829        7.7788829158
  C        15.6085875743        0.5523638167       17.8480625931
  H        14.8401283493        0.5512524250       18.6307945333
  C         4.7641086707       11.3851384243       17.8302659362
  H         3.9816742044       11.3872660124       18.5993068610
  C         4.7418055590        0.5595911842        7.0493963271
  H         3.9764370484        0.5592276366        7.8347898160
  C         6.9050262538       11.3808927540       15.7399949695
  H         7.6962983478       11.3776248515       14.9815947616
  C         6.8289128168        0.5599479357        4.9011823848
  H         7.5917820109        0.5603722212        4.1126705421
  C        17.6866899977       11.3713534388        4.9134208127
  H        18.4692400069       11.3697836602        4.1449159028
  C        17.7050929812        0.5537288366       15.7102984600
  H        18.4732747284        0.5549553043       14.9275889304
  C         6.9066239268       11.3773444276        7.0299132633
  H         7.6943256656       11.3730067513        7.7916487147
  C         6.8402777659        0.5617604329       17.8589849806
  H         7.6045786134        0.5624494803       18.6460905654
  C        17.6849044145       11.3716172537       17.8270242853
  H        18.4675109821       11.3698651759       18.5955685129
  C        17.7044424449        0.5526550431        7.0432574613
  H        18.4723300177        0.5537628258        7.8261859393
  C        15.5484067732       15.7303262014       11.3738429569
  H        14.7664374612       14.9613039441       11.3756788247
  C        15.6090655279        4.9043804418        0.5511757948
  H        14.8411446473        4.1210420701        0.5500718421
  C         4.7500017070       15.7138946490        0.5607568491
  H         3.9838950516       14.9292395654        0.5600372802
  C         4.7686848525        4.9380285171       11.3835643606
  H         3.9862160161        4.1689353382       11.3864978682
  C         6.9050318185       15.7399956485       11.3808844208
  H         7.6963019766       14.9815928891       11.3776115037
  C         6.8289167335        4.9011799072        0.5599633469
  H         7.5917874787        4.1126702039        0.5603990614
  C        17.7050945781       15.7103048115        0.5537326944
  H        18.4732721246       14.9275918788        0.5549557061
  C        17.6866920006        4.9134214761       11.3713498037
  H        18.4692445351        4.1449182813       11.3697836437
  C        15.5501300405        7.0098525542       11.3731864903
  H        14.7680801216        7.7788845378       11.3749441302
  C        15.6085894076       17.8480701936        0.5523708530
  H        14.8401260815       18.6307984739        0.5512664739
  C         4.7418086729        7.0493921884        0.5596037760
  H         3.9764410987        7.8347867681        0.5592377109
  C         4.7641116988       17.8302661349       11.3851317562
  H         3.9816732063       18.5993028129       11.3872594973
  C         6.9066159793        7.0299198351       11.3773419919
  H         7.6943197783        7.7916530347       11.3730113615
  C         6.8402812865       17.8589878614        0.5617674929
  H         7.6045856844       18.6460908488        0.5624532392
  C        17.7044400421        7.0432540094        0.5526620416
  H        18.4723261346        7.8261840872        0.5537757969
  C        17.6849090077       17.8270258714       11.3716134092
  H        18.4675182185       18.5955671110       11.3698592667
 Xe         7.9001975105       11.3552799606       11.3552759502
