     409
 i =     150, E =    -5183.7558578580
  N         2.9716295346        5.2082152691       16.0316669525
  C         1.6530649971        5.4781830789       16.2976650919
  N        13.7789778365        5.2035706314        5.2035715634
  C        12.4622175507        5.4766221619        5.4766239142
  N        19.6634695124       17.5749592680       16.0188258714
  C        20.9813096153       17.3070980617       16.2910238719
  N         8.8336523999       17.5828665257        5.2173546873
  C        10.1515298943       17.3087357942        5.4821513969
  N        19.6428677101        5.1994414675        6.7558454828
  C        20.9606356628        5.4741119214        6.4902168339
  N         8.8336522219        5.2173548111       17.5828673505
  C        10.1515271586        5.4821522071       17.3087362320
  N         2.9671245201       17.5853348749        6.7668262683
  C         1.6499547408       17.3126593447        6.4952893541
  N        13.8020188562       17.5748109749       17.5748112383
  C        12.4840457619       17.3060356153       17.3060353011
  N        15.9305774364        3.0443029949        5.1991938641
  C        16.2011066496        1.7266949142        5.4692264958
  N        15.9542133171       13.8657521156       16.0172174210
  C        16.2232487398       12.5481469260       16.2865573862
  N        15.9540504615       19.7279701675       17.5735448452
  C        16.2217735885       21.0457161211       17.3026389013
  N        15.9403158966        8.9102672221        6.7568417568
  C        16.2112157300       10.2274874935        6.4870859511
  N         6.6795926521       19.7436499356        5.2183292351
  C         6.4080049500       21.0611828225        5.4875118731
  N         6.6793455940        8.9214088473       16.0282741890
  C         6.4110616290       10.2391154388       16.2983644068
  N         6.6858663575        3.0600724379       17.5887492940
  C         6.4214398053        1.7414619177       17.3168045125
  N         6.6701137433       13.8767604462        6.7716952075
  C         6.3969964373       12.5596069337        6.5045899028
  N         5.1315476016       16.0321636868        3.0564408426
  C         5.4058961143       16.3004300368        1.7393971670
  N         5.1189186926        5.2123552978       13.8783403236
  C         5.3834620836        5.4862606721       12.5604486747
  N        17.5081680668       16.0162506679       19.7290987272
  C        17.2368183251       16.2857461875       21.0466239119
  N        17.4914612312        5.1973920632        8.9089297388
  C        17.2246933932        5.4687542516       10.2266874993
  N         5.1227380667        6.7724864552       19.7422390036
  C         5.3914326251        6.5029192636       21.0602273630
  N         5.1247784847       17.5852103813        8.9228560268
  C         5.3961191060       17.3154297769       10.2401697204
  N        17.4858512813        6.7553417271        3.0451113192
  C        17.2166089765        6.4856946761        1.7274903639
  N        17.5092757608       17.5737539995       13.8644028994
  C        17.2385061253       17.3032757419       12.5470690426
  N         5.1168386936        3.0586412360        6.7717533241
  C         5.3882625000        1.7410245949        6.5025647160
  N         5.1326503610       13.8784467533       17.5870913372
  C         5.3998567590       12.5604846150       17.3163015589
  N        17.4924167169       19.7301740595        6.7549019966
  C        17.2201743167       21.0473324494        6.4855197373
  N        17.4985617555        8.9089574039       17.5762834301
  C        17.2331973678       10.2268532248       17.3043057643
  N         5.1401968007       19.7410074498       16.0316298896
  C         5.4103798598       21.0588178635       16.3001265457
  N         5.1119293826        8.9228883674        5.2174881810
  C         5.3804123711       10.2403682269        5.4887718133
  N        17.5005119124        3.0452791456       16.0151152790
  C        17.2328562986        1.7272828811       16.2852596254
  N        17.4993093352       13.8641440657        5.2005716410
  C        17.2285596125       12.5467545561        5.4702295627
  N         2.9801201562       16.0319270363       17.5876943897
  C         1.6624059141       16.2972077111       17.3131849797
  N        13.7916099219       16.0161447256        6.7571486070
  C        12.4735657498       16.2876940641        6.4899003425
  N        19.6543913810       16.0198128804        5.2019803900
  C        20.9715133318       16.2917881166        5.4746208231
  N         8.8419911873       16.0251032401       16.0251032940
  C        10.1606228021       16.2931331184       16.2931326364
  N        19.6496914485        6.7572067721       17.5774144509
  C        20.9683564154        6.4903660035       17.3082757472
  N         8.8275610370        6.7711635198        6.7711630138
  C        10.1446889227        6.4987394874        6.4987403459
  N         2.9598022470        6.7685050970        5.2126161465
  C         1.6419538265        6.4964605257        5.4804212631
  N        13.7916094707        6.7571492675       16.0161465437
  C        12.4735680517        6.4898998549       16.2876961253
  N        15.9394817379        5.1970204552       19.7278849009
  C        16.2055254561        5.4683008878       21.0460221772
  N        15.9462611796       16.0179184996        8.9110681498
  C        16.2189184676       16.2867718505       10.2281877881
  N        15.9454681116       17.5712963338        3.0433806951
  C        16.2174179922       17.3017538927        1.7260888629
  N        15.9461945270        6.7586384242       13.8648984676
  C        16.2143665999        6.4879598718       12.5473639009
  N         6.6713798821        5.2155700374        3.0598876667
  C         6.4039557992        5.4863408501        1.7418895847
  N         6.6854186804       16.0289793982       13.8765957118
  C         6.4141699120       16.2987262018       12.5593325503
  N         6.6978611871       17.5862489235       19.7424174822
  C         6.4270689642       17.3155849413       21.0600725549
  N         6.6660964994        6.7742176778        8.9228920218
  C         6.3951697882        6.5058309868       10.2401144483
  N        19.6496931700       17.5774133409        6.7572064518
  C        20.9683612990       17.3082747062        6.4903671869
  N         8.8467699400       17.5811203891       17.5811198425
  C        10.1635536128       17.3091658352       17.3091650516
  N         2.9598027170        5.2126146232        6.7685042547
  C         1.6419497249        5.4804191987        6.4964610152
  N        13.7901482957        5.2001100212       17.5719361108
  C        12.4726519838        5.4739494625       17.3039452639
  N         2.9801201216       17.5876955003       16.0319263926
  C         1.6624039934       17.3131863027       16.2972069008
  N        13.7901482490       17.5719334434        5.2001085164
  C        12.4726546675       17.3039427926        5.4739495041
  N        19.6543888651        5.2019804568       16.0198142252
  C        20.9715138695        5.4746195816       16.2917893390
  N         8.8225228963        5.2151797416        5.2151797434
  C        10.1410754633        5.4826981580        5.4826994206
  N         6.6978608259       19.7424182266       17.5862485963
  C         6.4270674017       21.0600718467       17.3155847614
  N         6.6660970279        8.9228919095        6.7742174355
  C         6.3951716582       10.2401170202        6.5058306480
  N         6.6713794504        3.0598876623        5.2155679565
  C         6.4039566794        1.7418913029        5.4863407671
  N         6.6854189909       13.8765955046       16.0289808151
  C         6.4141694401       12.5593323697       16.2987271045
  N        15.9454657230        3.0433813022       17.5712953792
  C        16.2174147516        1.7260889296       17.3017520172
  N        15.9461947991       13.8648985679        6.7586363838
  C        16.2143664187       12.5473614303        6.4879593683
  N        15.9394809587       19.7278838644        5.1970214529
  C        16.2055238805       21.0460177615        5.4683047754
  N        15.9462598014        8.9110687837       16.0179198388
  C        16.2189175616       10.2281893406       16.2867721988
  N        17.4924156964        6.7549026830       19.7301762615
  C        17.2201748642        6.4855171913       21.0473313580
  N        17.4985629909       17.5762820738        8.9089564824
  C        17.2331981327       17.3043054579       10.2268537204
  N         5.1168380816        6.7717541552        3.0586413886
  C         5.3882609856        6.5025640380        1.7410268535
  N         5.1326510173       17.5870911315       13.8784464924
  C         5.3998581777       17.3163011802       12.5604846089
  N        17.5005145779       16.0151161706        3.0452782059
  C        17.2328598056       16.2852614483        1.7272817172
  N        17.4993082773        5.2005730267       13.8641451557
  C        17.2285590938        5.4702299092       12.5467533122
  N         5.1401969207       16.0316308872       19.7410068560
  C         5.4103809024       16.3001267227       21.0588161159
  N         5.1119277991        5.2174892347        8.9228880648
  C         5.3804097693        5.4887728658       10.2403709120
  N        17.5081670866       19.7290993981       16.0162489968
  C        17.2368156283       21.0466237683       16.2857441764
  N        17.4914596945        8.9089283785        5.1973913526
  C        17.2246937445       10.2266891845        5.4687527872
  N         5.1315462511        3.0564413350       16.0321637680
  C         5.4058952734        1.7393997373       16.3004311405
  N         5.1189211209       13.8783405001        5.2123535734
  C         5.3834634916       12.5604451139        5.4862579348
  N        17.4858511353        3.0451093177        6.7553441719
  C        17.2166064882        1.7274914055        6.4856973126
  N        17.5092746473       13.8644034415       17.5737541714
  C        17.2385060614       12.5470681673       17.3032762351
  N         5.1227394144       19.7422386461        6.7724857146
  C         5.3914353645       21.0602257617        6.5029190975
  N         5.1247765694        8.9228560012       17.5852105998
  C         5.3961172738       10.2401688464       17.3154299235
  N        19.6428669542        6.7558456786        5.1994435053
  C        20.9606399133        6.4902182657        5.4741120872
  N         8.8342057571        6.7691939879       16.0227961680
  C        10.1520571697        6.4962066277       16.2906912781
  N         2.9671227509        6.7668264582       17.5853362889
  C         1.6499500216        6.4952899344       17.3126622708
  N        13.7851720186        6.7599536061        6.7599544927
  C        12.4662718813        6.4927255837        6.4927271636
  N         2.9716319358       16.0316656314        5.2082149460
  C         1.6530646131       16.2976623557        5.4781825392
  N        13.7989089235       16.0185892465       16.0185892518
  C        12.4817412658       16.2899953635       16.2899949732
  N        19.6634691556       16.0188254584       17.5749581221
  C        20.9813118673       16.2910229451       17.3070980145
  N         8.8342061997       16.0227952551        6.7691937722
  C        10.1520548428       16.2906909484        6.4962057731
  N         6.6858677508       17.5887488756        3.0600715713
  C         6.4214409756       17.3168034888        1.7414626234
  N         6.6701124157        6.7716959498       13.8767611389
  C         6.3969958066        6.5045920012       12.5596036800
  N         6.6795921013        5.2183308200       19.7436504990
  C         6.4080028287        5.4875126487       21.0611820311
  N         6.6793467273       16.0282730454        8.9214092192
  C         6.4110626516       16.2983638539       10.2391144801
  N        15.9540514034       17.5735462270       19.7279702819
  C        16.2217761390       17.3026407148       21.0457153254
  N        15.9403169622        6.7568423264        8.9102671625
  C        16.2112154420        6.4870871746       10.2274900741
  N        15.9305795580        5.1991897505        3.0443041581
  C        16.2011102144        5.4692223333        1.7266985914
  N        15.9542141369       16.0172172467       13.8657520561
  C        16.2232488737       16.2865569179       12.5481454641
 Zn        14.6608366966       14.7246603445       14.7246600440
 Cl        13.4275123496       13.4929270748       13.4929257388
 Zn        14.6389952341        3.9072358321        3.9072372719
 Cl        13.4001014080        2.6782740083        2.6782770510
 Zn         3.8368449126       14.7426309706        3.9124229985
 Cl         2.6039543001       13.5095924958        2.6807421546
 Zn         3.8368433184        3.9124241091       14.7426312120
 Cl         2.6039528569        2.6807432774       13.5095921856
 Zn         7.9654856291        8.0603315745       14.7302386594
 Cl         9.1916243776        9.2946607314       13.4931235792
 Zn         7.9717103885       18.8804172586        3.9309627190
 Cl         9.2077858627       20.1120358118        2.7000261973
 Zn        18.7789895888        8.0477709469        3.9031939877
 Cl        20.0122154252        9.2777375892        2.6692555477
 Zn        18.8016012935       18.8685307645       14.7240390287
 Cl        20.0344600338       20.0983945786       13.4899873281
 Zn         7.9654861469       14.7302376042        8.0603314186
 Cl         9.1916247530       13.4931220705        9.2946603233
 Zn         7.9717091282        3.9309633226       18.8804178450
 Cl         9.2077831285        2.7000250799       20.1120363141
 Zn        18.8015991634       14.7240394423       18.8685301863
 Cl        20.0344606920       13.4899883420       20.0983914976
 Zn        18.7789905164        3.9031930948        8.0477724142
 Cl        20.0122168545        2.6692551924        9.2777394248
 Zn        14.6521319394        8.0526303050        8.0526302330
 Cl        13.4207348097        9.2856901546        9.2856917586
 Zn        14.6635014168       18.8688687120       18.8688684561
 Cl        13.4313538900       20.1011540140       20.1011555336
 Zn         3.8319033447        8.0611836603       18.8767176170
 Cl         2.5999771108        9.2977424531       20.1058830090
 Zn         3.8319042892       18.8767172467        8.0611832918
 Cl         2.5999787193       20.1058821780        9.2977432986
 Zn        14.6557326135       14.7240976739        8.0525030799
 Cl        13.4224485472       13.4929380737        9.2852316285
 Zn        14.6533579174        3.9026713824       18.8640441222
 Cl        13.4181872032        2.6695294482       20.0929666122
 Zn         3.8435209265       14.7420588485       18.8804697522
 Cl         2.6130385849       13.5088701459       20.1143155530
 Zn         3.8256333536        3.9222477788        8.0611027346
 Cl         2.5933744761        2.6910540664        9.2957901228
 Zn         7.9595779725        8.0629805694        8.0629807437
 Cl         9.1828596129        9.3002231655        9.3002218050
 Zn         7.9928631943       18.8765199724       18.8765194260
 Cl         9.2300857959       20.1062687955       20.1062710957
 Zn        18.7835104831        8.0485469266       18.8728642441
 Cl        20.0175344599        9.2792265654       20.1056239977
 Zn        18.7835114548       18.8728628261        8.0485466234
 Cl        20.0175360074       20.1056231900        9.2792251884
 Zn        14.6557314409        8.0525031015       14.7240980369
 Cl        13.4224464957        9.2852334234       13.4929410472
 Zn        14.6533581097       18.8640432864        3.9026719451
 Cl        13.4181875815       20.0929635545        2.6695275965
 Zn         3.8256326373        8.0611030901        3.9222497355
 Cl         2.5933752748        9.2957899411        2.6910538971
 Zn         3.8435213188       18.8804698541       14.7420573286
 Cl         2.6130381642       20.1143153434       13.5088691842
 Zn         7.9746445519       14.7323794552       14.7323801554
 Cl         9.2036568719       13.4982334719       13.4982358286
 Zn         7.9590455907        3.9235868489        3.9235849597
 Cl         9.1930507119        2.6913684993        2.6913674611
 Zn        18.7912786142       14.7239179478        3.9078960070
 Cl        20.0252711854       13.4898275721        2.6788487368
 Zn        18.7912756565        3.9078966651       14.7239186022
 Cl        20.0252694989        2.6788499605       13.4898287509
 Zn         5.8999147635        5.9954211317       16.8129135299
 Zn        16.7280076818       16.7943163717       16.7943165334
 Zn        16.7134398123        5.9751321270        5.9751340154
 Zn         5.8999155301       16.8129128105        5.9954205329
 Zn         5.8934184283        5.9966347921        5.9966344639
 Zn        16.7197848818       16.7939287830        5.9757613126
 Zn         5.9103980856       16.8138792480       16.8138789779
 Zn        16.7197839944        5.9757676993       16.7939326233
  N         3.7157128414        5.9878358420       16.8101962462
  N        14.5283210618        5.9803237232        5.9803241705
  N        18.9169717997       16.7958152709       16.7958148631
  N         8.0874507069       16.8047721062        5.9952865366
  N        18.8966099497        5.9752037044        5.9752051320
  N         8.0874503587        5.9952863012       16.8047733527
  N         3.7157148299       16.8101957937        5.9878356846
  N        14.5467842364       16.7960368086       16.7960371331
  N        16.7081781509        3.7912108810        5.9770714411
  N        16.7320446728       14.6115426027       16.7957477892
  N        16.7319851650       18.9818488271       16.7953492465
  N        16.7148730014        8.1628047683        5.9767277411
  N         5.9019054636       18.9964135726        5.9955379846
  N         5.9012458039        8.1757878837       16.8066234163
  N         5.9059051942        3.8050097480       16.8115758515
  N         5.8970740825       14.6243705647        5.9902308184
  N         5.9059066506       16.8115760141        3.8050091245
  N         5.8970719245        5.9902315997       14.6243707975
  N        16.7319855301       16.7953503977       18.9818485866
  N        16.7148751129        5.9767281558        8.1628054810
  N         5.9019056305        5.9955394483       18.9964139884
  N         5.9012470259       16.8066228126        8.1757881130
  N        16.7081781682        5.9770685810        3.7912125953
  N        16.7320458105       16.7957476613       14.6115422331
  N         5.8931319141        3.8060262399        5.9932264426
  N         5.9101235848       14.6243121021       16.8083464241
  N        16.7177058929       18.9822586054        5.9753122446
  N        16.7205788349        8.1632327715       16.7979750655
  N         5.9188453766       18.9954293974       16.8096456008
  N         5.8898621540        8.1764315014        5.9950367973
  N        16.7219324523        3.7908993455       16.7930401586
  N        16.7233567169       14.6110370770        5.9798915810
  N         3.7266549399       16.8123922331       16.8123922309
  N        14.5370844547       16.7931111573        5.9769743424
  N        18.9057515141       16.7980021491        5.9781153946
  N         8.0978777429       16.8042583508       16.8042582651
  N        18.9057495028        5.9781170615       16.7980040223
  N         8.0786011671        5.9942040855        5.9942032340
  N         3.7062368573        5.9916655545        5.9916650610
  N        14.5370841957        5.9769759580       16.7931133339
  N        16.7177050385        5.9753137211       18.9822604067
  N        16.7205800724       16.7979733049        8.1632316596
  N        16.7219349978       16.7930402840        3.7908983149
  N        16.7233552435        5.9798945347       14.6110377133
  N         5.8931322255        5.9932290442        3.8060262836
  N         5.9101235086       16.8083454901       14.6243120905
  N         5.9188445475       16.8096462070       18.9954287121
  N         5.8898621441        5.9950376008        8.1764314204
  C        11.3196591919       15.7412015266       15.7412008125
  H        11.3175912499       14.9656634900       14.9656623998
  C        11.2988547233        4.9293801096        4.9293819595
  H        11.2943334947        4.1538119789        4.1538134188
  C         0.4944947268       15.7442447864        4.9264715033
  H         0.4982303593       14.9685542337        4.1510680225
  C         0.4944897392        4.9264712703       15.7442469794
  H         0.4982295795        4.1510682025       14.9685559431
  C        11.3135209758        7.0426138946       15.7382957517
  H        11.3150205566        7.8175330552       14.9621526735
  C        11.3113210264       17.8570144124        4.9281452074
  H        11.3099771443       18.6333305528        4.1533204897
  C         0.4813479343        7.0441230535        4.9275245054
  H         0.4815253614        7.8201086972        4.1524155100
  C         0.5018817014       17.8601102722       15.7434300893
  H         0.5021576191       18.6356917183       14.9678973630
  C        11.3135237478       15.7382945790        7.0426137759
  H        11.3150199814       14.9621512081        7.8175325836
  C        11.3113233093        4.9281457970       17.8570160204
  H        11.3099762023        4.1533217449       18.6333328867
  C         0.5018796040       15.7434298399       17.8601088931
  H         0.5021583753       14.9678963037       18.6356901154
  C         0.4813528732        4.9275224465        7.0441217779
  H         0.4815256380        4.1524123711        7.8201059484
  C        11.3082284930        7.0459522638        7.0459534818
  H        11.3128508748        7.8214707351        7.8214712221
  C        11.3252868723       17.8580060792       17.8580051940
  H        11.3275216042       18.6335805264       18.6335793080
  C         0.4870096157        7.0435531956       17.8601179944
  H         0.4836624682        7.8194996667       18.6352534551
  C         0.4870087655       17.8601158602        7.0435536004
  H         0.4836661940       18.6352514667        7.8194998912
  C        15.6713679457       11.3890953414       15.7351949536
  H        14.8962639385       11.3906082035       14.9591692521
  C        15.6528752280        0.5655296099        4.9181863381
  H        14.8775299716        0.5641679923        4.1424288986
  C         4.8315889743       11.4006056376        4.9365681073
  H         4.0577693617       11.4006356013        4.1593145161
  C         4.8582161482        0.5781491323       15.7493744884
  H         4.0824506186        0.5765895985       14.9739522979
  C        15.6632247790       11.3879716860        7.0392375833
  H        14.8888137171       11.3887981792        7.8159829568
  C        15.6693049247        0.5651059382       17.8528579755
  H        14.8937078438        0.5638670906       18.6283982836
  C         4.8481390506       11.4010221936       17.8670469790
  H         4.0735581740       11.4019151133       18.6435476264
  C         4.8394532018        0.5799732562        7.0532630478
  H         4.0639429172        0.5788790081        7.8288604512
  C         6.9623729921       11.3985883980       15.7470535258
  H         7.7369053313       11.3974354451       14.9703847137
  C         6.9566855264        0.5822334985        4.9366785169
  H         7.7325090181        0.5833175949        4.1613662781
  C        17.7762214652       11.3861337290        4.9178369412
  H        18.5502517177       11.3853338759        4.1407443777
  C        17.7847561658        0.5677546818       15.7344203991
  H        18.5592954439        0.5691880568       14.9578354020
  C         6.9447659666       11.3996292047        7.0579924758
  H         7.7189605485       11.3991304652        7.8349480645
  C         6.9751546870        0.5818527931       17.8659685250
  H         7.7506792256        0.5836334713       18.6414886311
  C        17.7861779805       11.3859718932       17.8546668052
  H        18.5607643696       11.3843483530       18.6312167877
  C        17.7681987509        0.5682010354        7.0368574549
  H        18.5431676210        0.5695898235        7.8130618162
  C        15.6713686829       15.7351945361       11.3890962154
  H        14.8962651942       14.9591681650       11.3906078072
  C        15.6528792355        4.9181816844        0.5655279440
  H        14.8775340521        4.1424234518        0.5641688905
  C         4.8582174402       15.7493746209        0.5781499943
  H         4.0824507342       14.9739525674        0.5765882207
  C         4.8315860757        4.9365703082       11.4006024316
  H         4.0577659876        4.1593179307       11.4006358920
  C         6.9623741394       15.7470517094       11.3985891949
  H         7.7369052466       14.9703828117       11.3974363381
  C         6.9566840426        4.9366794387        0.5822353338
  H         7.7325091973        4.1613683688        0.5833170760
  C        17.7847591438       15.7344230625        0.5677537625
  H        18.5592989362       14.9578374420        0.5691874376
  C        17.7762214923        4.9178375110       11.3861373348
  H        18.5502521496        4.1407461470       11.3853345306
  C        15.6632248188        7.0392386645       11.3879690302
  H        14.8888143553        7.8159845647       11.3887983301
  C        15.6693073532       17.8528604327        0.5651061457
  H        14.8937103135       18.6283998282        0.5638671435
  C         4.8394501813        7.0532627574        0.5799721351
  H         4.0639407369        7.8288603900        0.5788808812
  C         4.8481412957       17.8670468722       11.4010215042
  H         4.0735604971       18.6435478570       11.4019144426
  C         6.9447646015        7.0579928592       11.3996327525
  H         7.7189602564        7.8349482216       11.3991307896
  C         6.9751560899       17.8659679543        0.5818503987
  H         7.7506803143       18.6414884541        0.5836330425
  C        17.7681998311        7.0368553898        0.5682059164
  H        18.5431669678        7.8130616205        0.5695920333
  C        17.7861783831       17.8546664096       11.3859701415
  H        18.5607651384       18.6312157185       11.3843481681
 Xe         4.6368614515       10.3970291732       10.3970284166
