     409
 i =     150, E =    -5183.7510994683
  N         3.0264494527        5.2050029714       16.0226914056
  C         1.7082761658        5.4754184826       16.2911699681
  N        13.8427438456        5.2012927205        5.2012896292
  C        12.5250614715        5.4720388836        5.4720374034
  N        19.7109476530       17.5757199247       16.0193281896
  C        21.0289057679       17.3055106442       16.2893983615
  N         8.8886238226       17.5799190324        5.2051964910
  C        10.2065143852       17.3082124597        5.4735697663
  N        19.7052477725        5.2021267048        6.7585814649
  C        21.0231864901        5.4746101437        6.4907288144
  N         8.8886239534        5.2051974996       17.5799187208
  C        10.2065151737        5.4735698235       17.3082125656
  N         3.0247508426       17.5787678607        6.7617984817
  C         1.7071206548       17.3071468420        6.4916226039
  N        13.8494116994       17.5761368709       17.5761375700
  C        12.5315114259       17.3065811877       17.3065809346
  N        15.9964584998        3.0461599437        5.2004364167
  C        16.2659562538        1.7285652555        5.4707162819
  N        16.0026885630       13.8661675928       16.0180294996
  C        16.2727844760       12.5486520973       16.2872236795
  N        16.0023452915       19.7305198234       17.5761617712
  C        16.2711530221       21.0480955833       17.3054401989
  N        15.9983783051        8.9113234735        6.7586855953
  C        16.2690741178       10.2287094347        6.4893848756
  N         6.7348334069       19.7354692529        5.2068112451
  C         6.4655303611       21.0530394333        5.4776294495
  N         6.7362923733        8.9151587128       16.0234775341
  C         6.4674749706       10.2327723739       16.2937861632
  N         6.7362432007        3.0514343232       17.5797917330
  C         6.4697605928        1.7335491495       17.3078405156
  N         6.7342407591       13.8703892063        6.7620533554
  C         6.4648436886       12.5528871268        6.4919253081
  N         5.1829695576       16.0221983300        3.0504441602
  C         5.4550821822       16.2906613442        1.7329445772
  N         5.1804508690        5.2051181061       13.8706563436
  C         5.4498129226        5.4751146041       12.5530655258
  N        17.5554877175       16.0181522592       19.7306361294
  C        17.2855973818       16.2879734527       21.0482870492
  N        17.5513339496        5.2007856120        8.9107959397
  C        17.2835049999        5.4719504723       10.2284075733
  N         5.1807485536        6.7640511473       19.7350810841
  C         5.4506033499        6.4946720332       21.0527398727
  N         5.1816800171       17.5802373825        8.9157506874
  C         5.4522103351       17.3104766381       10.2331064914
  N        17.5497843809        6.7580627236        3.0463975794
  C        17.2804726640        6.4880806870        1.7287383866
  N        17.5566419490       17.5751216869       13.8658979644
  C        17.2876641302       17.3042409796       12.5483871738
  N         5.1784539543        3.0507751924        6.7636351592
  C         5.4492822915        1.7331698603        6.4945505251
  N         5.1837851426       13.8707329284       17.5806770031
  C         5.4531944705       12.5531720667       17.3107092395
  N        17.5511488567       19.7308757004        6.7578546738
  C        17.2811892689       21.0484214145        6.4879553103
  N        17.5536736924        8.9106705120       17.5759988972
  C        17.2861552082       10.2282989937       17.3046134236
  N         5.1858938222       19.7347612882       16.0223970815
  C         5.4567454976       21.0524242386       16.2908556974
  N         5.1788608859        8.9155567687        5.2057036246
  C         5.4490765194       10.2329909332        5.4754467333
  N        17.5536321304        3.0465757481       16.0179693507
  C        17.2846206466        1.7287860425       16.2878744505
  N        17.5539792496       13.8659771625        5.2017123766
  C        17.2848543847       12.5484587499        5.4723556478
  N         3.0284871912       16.0232456694       17.5796404303
  C         1.7106226573       16.2912382066       17.3073168086
  N        13.8457919979       16.0192600716        6.7570773761
  C        12.5279999568       16.2900018989        6.4875152234
  N        19.7087307015       16.0194611695        5.2021339287
  C        21.0264524544       16.2895134989        5.4738289148
  N         8.8910134115       16.0227039483       16.0227033703
  C        10.2091506223       16.2919977329       16.2919970314
  N        19.7071702019        6.7580796414       17.5763755641
  C        21.0253647393        6.4897247176       17.3058485325
  N         8.8870507888        6.7603321525        6.7603338723
  C        10.2045727752        6.4894756924        6.4894778327
  N         3.0228769592        6.7632333346        5.2068449998
  C         1.7049582727        6.4929978597        5.4769017129
  N        13.8457938791        6.7570776248       16.0192632707
  C        12.5280018192        6.4875149306       16.2900040238
  N        15.9983010714        5.1997131195       19.7305000523
  C        16.2668684029        5.4703904512       21.0481776894
  N        16.0003345571       16.0184394891        8.9112681467
  C        16.2714965699       16.2874029000       10.2286473789
  N        16.0001557924       17.5755683255        3.0458815101
  C        16.2700441442       17.3051948980        1.7284177839
  N        16.0003874211        6.7590737386       13.8661755715
  C        16.2701826341        6.4895727871       12.5486730387
  N         6.7316745394        5.2061247646        3.0512642100
  C         6.4639234783        5.4773472687        1.7335136829
  N         6.7376472715       16.0237416062       13.8705749812
  C         6.4682111421       16.2938862100       12.5530044673
  N         6.7404881489       17.5795251799       19.7353576402
  C         6.4718560977       17.3077690097       21.0529276320
  N         6.7334377473        6.7623906639        8.9153474533
  C         6.4643771588        6.4920985688       10.2328526113
  N        19.7071751323       17.5763764427        6.7580812411
  C        21.0253695201       17.3058479154        6.4897267191
  N         8.8928603202       17.5789207564       17.5789182471
  C        10.2103506971       17.3080693821       17.3080670510
  N         3.0228784070        5.2068473880        6.7632273978
  C         1.7049593851        5.4769035752        6.4929932773
  N        13.8457807460        5.2004668038       17.5755042589
  C        12.5279765947        5.4714321571       17.3061001193
  N         3.0284877009       17.5796378948       16.0232474047
  C         1.7106230910       17.3073145834       16.2912399137
  N        13.8457799627       17.5755007508        5.2004660469
  C        12.5279753846       17.3060980296        5.4714321007
  N        19.7087270975        5.2021317111       16.0194605674
  C        21.0264484369        5.4738267500       16.2895145056
  N         8.8852480198        5.2040118418        5.2040125398
  C        10.2034312670        5.4733895104        5.4733903409
  N         6.7404890293       19.7353567070       17.5795290154
  C         6.4718597504       21.0529260625       17.3077679914
  N         6.7334370332        8.9153490287        6.7623875680
  C         6.4643727761       10.2328544652        6.4921004094
  N         6.7316716970        3.0512627242        5.2061277947
  C         6.4639190085        1.7335116586        5.4773464226
  N         6.7376492594       13.8705764341       16.0237401045
  C         6.4682146054       12.5530061484       16.2938876767
  N        16.0001514596        3.0458818834       17.5755648737
  C        16.2700386644        1.7284182536       17.3051912845
  N        16.0003905335       13.8661753644        6.7590740372
  C        16.2701861622       12.5486725509        6.4895727874
  N        15.9982986221       19.7305005697        5.1997127447
  C        16.2668645760       21.0481779130        5.4703929891
  N        16.0003345427        8.9112667774       16.0184427396
  C        16.2714988517       10.2286461277       16.2874026887
  N        17.5511491310        6.7578566736       19.7308769538
  C        17.2811916744        6.4879542161       21.0484224816
  N        17.5536752380       17.5759948941        8.9106706745
  C        17.2861535911       17.3046130847       10.2282991723
  N         5.1784554968        6.7636311095        3.0507791895
  C         5.4492858263        6.4945501801        1.7331735475
  N         5.1837840169       17.5806796531       13.8707294966
  C         5.4531916295       17.3107086375       12.5531692166
  N        17.5536346071       16.0179715519        3.0465762212
  C        17.2846250443       16.2878769416        1.7287859332
  N        17.5539769813        5.2017125790       13.8659771954
  C        17.2848514880        5.4723564748       12.5484591005
  N         5.1858923731       16.0223943841       19.7347646758
  C         5.4567412094       16.2908571749       21.0524276044
  N         5.1788609163        5.2057075014        8.9155533676
  C         5.4490806402        5.4754453787       10.2329877914
  N        17.5554868748       19.7306363445       16.0181526324
  C        17.2855944203       21.0482872655       16.2879723386
  N        17.5513319151        8.9107959277        5.2007826613
  C        17.2835049069       10.2284068725        5.4719488114
  N         5.1829659889        3.0504412611       16.0221956074
  C         5.4550827943        1.7329415706       16.2906569048
  N         5.1804529027       13.8706589882        5.2051197431
  C         5.4498106823       12.5530684190        5.4751186309
  N        17.5497855755        3.0463974976        6.7580661141
  C        17.2804714474        1.7287378267        6.4880853445
  N        17.5566388761       13.8658975379       17.5751216447
  C        17.2876644935       12.5483865544       17.3042390307
  N         5.1807525847       19.7350770193        6.7640482272
  C         5.4506034452       21.0527359481        6.4946685151
  N         5.1816774772        8.9157534580       17.5802400234
  C         5.4522109015       10.2331092995       17.3104797841
  N        19.7052460719        6.7585806044        5.2021309796
  C        21.0231852293        6.4907290696        5.4746125715
  N         8.8887852696        6.7606504964       16.0228188111
  C        10.2065864515        6.4892536728       16.2917269709
  N         3.0247464200        6.7617988666       17.5787693175
  C         1.7071161687        6.4916213193       17.3071485896
  N        13.8439864712        6.7577312048        6.7577300774
  C        12.5259839558        6.4881386621        6.4881388113
  N         3.0264528009       16.0226904240        5.2050034290
  C         1.7082798479       16.2911681618        5.4754200555
  N        13.8480518442       16.0197493029       16.0197505705
  C        12.5305107300       16.2905078923       16.2905086717
  N        19.7109468273       16.0193282566       17.5757187611
  C        21.0289050783       16.2893981718       17.3055105825
  N         8.8887839224       16.0228187415        6.7606493235
  C        10.2065846836       16.2917269444        6.4892533140
  N         6.7362475496       17.5797936768        3.0514342502
  C         6.4697603898       17.3078443354        1.7335499986
  N         6.7342389857        6.7620516672       13.8703886803
  C         6.4648461214        6.4919212221       12.5528858069
  N         6.7348310399        5.2068153838       19.7354699910
  C         6.4655315716        5.4776339900       21.0530408594
  N         6.7362941958       16.0234749565        8.9151582211
  C         6.4674738594       16.2937826809       10.2327713427
  N        16.0023466361       17.5761616383       19.7305198551
  C        16.2711566080       17.3054418445       21.0480954305
  N        15.9983788549        6.7586862676        8.9113228274
  C        16.2690730064        6.4893853107       10.2287094947
  N        15.9964594859        5.2004301567        3.0461583546
  C        16.2659591254        5.4707098594        1.7285645168
  N        16.0026918321       16.0180287664       13.8661694646
  C        16.2727841863       16.2872255461       12.5486537353
 Zn        14.7108007034       14.7253382273       14.7253383776
 Cl        13.4775827334       13.4934544724       13.4934580731
 Zn        14.7068268172        3.9066745652        3.9066765495
 Cl        13.4717069438        2.6756381878        2.6756376550
 Zn         3.8911388891       14.7296742387        3.9100103356
 Cl         2.6582886270       13.4963500816        2.6790818764
 Zn         3.8911344238        3.9100076623       14.7296704385
 Cl         2.6582838643        2.6790779354       13.4963462831
 Zn         8.0251559576        8.0544707284       14.7286086848
 Cl         9.2595179970        9.2856153717       13.4968135717
 Zn         8.0237244642       18.8744095112        3.9121885341
 Cl         9.2587383918       20.1063655566        2.6816753464
 Zn        18.8399386308        8.0509734100        3.9063054894
 Cl        20.0739027816        9.2833652608        2.6753300358
 Zn        18.8460302263       18.8699606190       14.7253077146
 Cl        20.0798881291       20.1002234560       13.4921325680
 Zn         8.0251567879       14.7286091131        8.0544700750
 Cl         9.2595210144       13.4968120145        9.2856092268
 Zn         8.0237206089        3.9121896197       18.8744088965
 Cl         9.2587352021        2.6816794075       20.1063686146
 Zn        18.8460274857       14.7253071798       18.8699583435
 Cl        20.0798854215       13.4921354113       20.1002244722
 Zn        18.8399409927        3.9063040689        8.0509776368
 Cl        20.0739086610        2.6753255360        9.2833633122
 Zn        14.7078478480        8.0518705703        8.0518701030
 Cl        13.4750187475        9.2840405229        9.2840469110
 Zn        14.7122371859       18.8704354160       18.8704367001
 Cl        13.4785476732       20.1020942056       20.1020939541
 Zn         3.8893758028        8.0552867598       18.8726775457
 Cl         2.6571353347        9.2899763374       20.1029588217
 Zn         3.8893812268       18.8726740050        8.0552833968
 Cl         2.6571433276       20.1029555832        9.2899732533
 Zn        14.7091686569       14.7254462081        8.0518521131
 Cl        13.4761146210       13.4937701095        9.2842107187
 Zn        14.7094437767        3.9054410062       18.8693393774
 Cl        13.4751387417        2.6732832958       20.0999914061
 Zn         3.8928225965       14.7301455991       18.8738821644
 Cl         2.6609699432       13.4971650699       20.1061280003
 Zn         3.8880687355        3.9119131916        8.0553988022
 Cl         2.6552516845        2.6821355257        9.2901081262
 Zn         8.0242517975        8.0544576604        8.0544554016
 Cl         9.2591281896        9.2856537485        9.2856613896
 Zn         8.0311852054       18.8732649033       18.8732674806
 Cl         9.2666537681       20.1040699143       20.1040624944
 Zn        18.8414182265        8.0508851471       18.8711945633
 Cl        20.0754134297        9.2830255957       20.1024711750
 Zn        18.8414185248       18.8711937447        8.0508847442
 Cl        20.0754149990       20.1024681290        9.2830266204
 Zn        14.7091687941        8.0518522008       14.7254490593
 Cl        13.4761186638        9.2842069217       13.4937654297
 Zn        14.7094425081       18.8693381206        3.9054401630
 Cl        13.4751416050       20.0999965554        2.6732843089
 Zn         3.8880701578        8.0553999910        3.9119091586
 Cl         2.6552437972        9.2901133396        2.6821452715
 Zn         3.8928222204       18.8738816420       14.7301478385
 Cl         2.6609764140       20.1061229708       13.4971556563
 Zn         8.0268540983       14.7286557286       14.7286526462
 Cl         9.2610205217       13.4970935520       13.4970997494
 Zn         8.0190032394        3.9103615816        3.9103665795
 Cl         9.2528256926        2.6785570530        2.6785494458
 Zn        18.8438133366       14.7253431478        3.9075414193
 Cl        20.0776496460       13.4918986353        2.6775375021
 Zn        18.8438119908        3.9075392467       14.7253399799
 Cl        20.0776515301        2.6775328387       13.4919003069
 Zn         5.9553384586        5.9875698387       16.8057326917
 Zn        16.7767641160       16.7976881920       16.7976872421
 Zn        16.7728063812        5.9794585980        5.9794570288
 Zn         5.9553423979       16.8057325219        5.9875681661
 Zn         5.9534837030        5.9876695920        5.9876675765
 Zn        16.7745914382       16.7977079098        5.9791959075
 Zn         5.9578957258       16.8062801532       16.8062809311
 Zn        16.7745907651        5.9791954792       16.7977093877
  N         3.7718586930        5.9833129470       16.8015874880
  N        14.5895514449        5.9792280907        5.9792251182
  N        18.9645998157       16.7976161597       16.7976150922
  N         8.1423299269       16.8021553026        5.9837687084
  N        18.9589625853        5.9790983557        5.9791019830
  N         8.1423307861        5.9837703441       16.8021551416
  N         3.7718628279       16.8015867934        5.9833123046
  N        14.5949628307       16.7976552764       16.7976565856
  N        16.7729803777        3.7929486233        5.9792658506
  N        16.7791506985       14.6126390414       16.7971793195
  N        16.7790679598       18.9839157707       16.7973248894
  N        16.7739445616        8.1644292310        5.9790822447
  N         5.9575423882       18.9887711841        5.9850310022
  N         5.9584726476        8.1690132362       16.8016948609
  N         5.9580118140        3.7977569195       16.8021267712
  N         5.9573171738       14.6173185946        5.9837026477
  N         5.9580184242       16.8021279477        3.7977585638
  N         5.9573126416        5.9837025191       14.6173166907
  N        16.7790678255       16.7973236985       18.9839155539
  N        16.7739472537        5.9790844738        8.1644294608
  N         5.9575371415        5.9850337834       18.9887736508
  N         5.9584764844       16.8016930755        8.1690113661
  N        16.7729785477        5.9792617151        3.7929483746
  N        16.7791558015       16.7971775876       14.6126401047
  N         5.9542364354        3.7978544244        5.9842675215
  N         5.9606788036       14.6174574387       16.8021743991
  N        16.7749984810       18.9840123163        5.9786616167
  N        16.7758871430        8.1643288564       16.7980487285
  N         5.9623664665       18.9886333581       16.8020056150
  N         5.9557679565        8.1690049060        5.9842889357
  N        16.7765487670        3.7928841758       16.7968006907
  N        16.7767918449       14.6126875858        5.9799418553
  N         3.7747813579       16.8027137716       16.8027159879
  N        14.5919895903       16.7970675861        5.9784324089
  N        18.9616393769       16.7981177761        5.9792257018
  N         8.1455148919       16.8012380908       16.8012366428
  N        18.9616351106        5.9792243093       16.7981163630
  N         8.1397966907        5.9825818986        5.9825828382
  N         3.7691566898        5.9850860784        5.9850815051
  N        14.5919909208        5.9784332447       16.7970717058
  N        16.7749984625        5.9786646231       18.9840128955
  N        16.7758896016       16.7980430577        8.1643294688
  N        16.7765515349       16.7968028628        3.7928839285
  N        16.7767894250        5.9799421055       14.6126880775
  N         5.9542373367        5.9842619352        3.7978569755
  N         5.9606784068       16.8021781905       14.6174553275
  N         5.9623670824       16.8019997507       18.9886357645
  N         5.9557659882        5.9842953768        8.1690023728
  C        11.3691336422       15.7409844615       15.7409853245
  H        11.3681240111       14.9654303002       14.9654322193
  C        11.3636221936        4.9225251193        4.9225239594
  H        11.3627467293        4.1469857374        4.1469830282
  C         0.5481024194       15.7398195616        4.9248798800
  H         0.5494374138       14.9639815148        4.1496257371
  C         0.5480988295        4.9248777854       15.7398215213
  H         0.5494330697        4.1496237404       14.9639834313
  C        11.3672958316        7.0384116050       15.7404369820
  H        11.3673522467        7.8138888212       14.9648068790
  C        11.3672322954       17.8573800813        4.9223015391
  H        11.3673221702       18.6331344992        4.1469695168
  C         0.5440774410        7.0424336711        4.9260538653
  H         0.5441732937        7.8182716345        4.1508045813
  C         0.5497650948       17.8561993882       15.7398049723
  H         0.5498935668       18.6316689860       14.9641829042
  C        11.3672932565       15.7404360061        7.0384117414
  H        11.3673469070       14.9648054215        7.8138884880
  C        11.3672328956        4.9223015851       17.8573810225
  H        11.3673232941        4.1469700663       18.6331359168
  C         0.5497635462       15.7398042368       17.8562007573
  H         0.5498892677       14.9641823874       18.6316706635
  C         0.5440807537        4.9260519437        7.0424295026
  H         0.5441812353        4.1508007252        7.8182654619
  C        11.3658976106        7.0390160096        7.0390185508
  H        11.3668856005        7.8145694045        7.8145727918
  C        11.3716058258       17.8575875048       17.8575850430
  H        11.3727983417       18.6331367368       18.6331332796
  C         0.5455050360        7.0411189644       17.8563129447
  H         0.5443842661        7.8168380696       18.6316789698
  C         0.5455101177       17.8563116063        7.0411208681
  H         0.5443899416       18.6316776455        7.8168398671
  C        15.7223790235       11.3889013531       15.7358566993
  H        14.9472392791       11.3893020105       14.9598628563
  C        15.7164354097        0.5682389408        4.9194676641
  H        14.9414048324        0.5680248960        4.1433784233
  C         4.8992313327       11.3931431050        4.9243127321
  H         4.1240048769       11.3932125138        4.1484133487
  C         4.9065059903        0.5722821958       15.7392345646
  H         4.1315776519        0.5715197095       14.9630369205
  C        15.7198740298       11.3889023876        7.0409778270
  H        14.9448634911       11.3892381887        7.8171042671
  C        15.7206197451        0.5680617708       17.8563574451
  H        14.9455394381        0.5677582133       18.6323979436
  C         4.9026024007       11.3933344846       17.8616183801
  H         4.1274988078       11.3935189750       18.6376239788
  C         4.9003378778        0.5726990638        7.0460282010
  H         4.1256622884        0.5721802640        7.8224683138
  C         7.0181656825       11.3927583130       15.7429241241
  H         7.7932755344       11.3924846813       14.9668641549
  C         7.0150081687        0.5735952245        4.9267126625
  H         7.7899896267        0.5741165242        4.1505404322
  C        17.8342954560       11.3882184905        4.9210049520
  H        18.6086787407       11.3878663168        4.1442457811
  C        17.8347222253        0.5687433990       15.7364635463
  H        18.6089311648        0.5691018637       14.9595267877
  C         7.0149465386       11.3928137856        7.0429595226
  H         7.7901106052       11.3926644771        7.8189563204
  C         7.0213077584        0.5737247058       17.8582964608
  H         7.7961947134        0.5745318087       18.6345477214
  C        17.8372136496       11.3880844839       17.8553694693
  H        18.6117526612       11.3876529144       18.6319744737
  C        17.8304296766        0.5687215930        7.0395305878
  H        18.6046611024        0.5689561397        7.8164487451
  C        15.7223774589       15.7358581690       11.3889037722
  H        14.9472399730       14.9598620306       11.3893065011
  C        15.7164401359        4.9194616411        0.5682370271
  H        14.9414099614        4.1433720324        0.5680203746
  C         4.9065025927       15.7392381561        0.5722869072
  H         4.1315756960       14.9630390323        0.5715279493
  C         4.8992348777        4.9243099097       11.3931390219
  H         4.1240055245        4.1484134777       11.3932059211
  C         7.0181628147       15.7429208316       11.3927578475
  H         7.7932734149       14.9668616172       11.3924846335
  C         7.0150121036        4.9267166243        0.5735954283
  H         7.7899932045        4.1505440282        0.5741153476
  C        17.8347258563       15.7364650896        0.5687432801
  H        18.6089340418       14.9595275005        0.5691009336
  C        17.8342942382        4.9210065112       11.3882193460
  H        18.6086784108        4.1442483554       11.3878691989
  C        15.7198706610        7.0409770566       11.3889019313
  H        14.9448594065        7.8171028516       11.3892362471
  C        15.7206252756       17.8563610506        0.5680615431
  H        14.9455454254       18.6324019380        0.5677584946
  C         4.9003392201        7.0460294281        0.5727047371
  H         4.1256614064        7.8224673688        0.5721897804
  C         4.9026007477       17.8616166422       11.3933304226
  H         4.1274988447       18.6376239073       11.3935127783
  C         7.0149504428        7.0429559180       11.3928132819
  H         7.7901125337        7.8189547272       11.3926655087
  C         7.0213057384       17.8582992073        0.5737242873
  H         7.7961947909       18.6345483232        0.5745287522
  C        17.8304312436        7.0395282991        0.5687233390
  H        18.6046605208        7.8164486808        0.5689602270
  C        17.8372125241       17.8553700639       11.3880840738
  H        18.6117542212       18.6319723297       11.3876505563
 Xe         1.1404827278       10.6730269900       10.6730267477
