     409
 i =     150, E =    -5183.7489406991
  N         2.8227228554        5.1980577319       15.9966485546
  C         1.5056512922        5.4685207000       16.2670770255
  N        13.6317895414        5.1222581293        5.1222556585
  C        12.3149350922        5.3975475744        5.3975456865
  N        19.5193070646       17.5576173429       16.0024055436
  C        20.8366205195       17.2881571158       16.2722642209
  N         8.6756052870       17.5917653344        5.1638619192
  C         9.9977411248       17.3316958464        5.4223237550
  N        19.5020993745        5.1998793555        6.7556957591
  C        20.8195324698        5.4715119435        6.4873990579
  N         8.6756075860        5.1638573331       17.5917711813
  C         9.9977426719        5.4223215290       17.3316994963
  N         2.8242023903       17.5484838907        6.7573741697
  C         1.5066733571       17.2812057431        6.4863171220
  N        13.6463568365       17.6171696243       17.6171729188
  C        12.3292964125       17.3432549400       17.3432555722
  N        15.8279803945        3.0292169916        5.1765331796
  C        16.0949321438        1.7141618512        5.4539762140
  N        15.7885061063       13.8574699293       16.0190867344
  C        16.0576489798       12.5374577606       16.2856391762
  N        15.8364685014       19.7201960956       17.5713627418
  C        16.1013325666       21.0358829852       17.2937088548
  N        15.7717639052        8.8923271270        6.7280512699
  C        16.0424349581       10.2133152716        6.4679451071
  N         6.5018805263       19.7198997894        5.1909657155
  C         6.2319330794       21.0359210924        5.4642158549
  N         6.5585522427        8.8942420331       16.0084118364
  C         6.2908126856       10.2138472901       16.2762156430
  N         6.5067418132        3.0329885747       17.5742099787
  C         6.2403899884        1.7161484026       17.2998620435
  N         6.5520543363       13.8547411236        6.7330194922
  C         6.2796905776       12.5357592698        6.4687055965
  N         4.9662083406       16.0037982393        3.0338662806
  C         5.2340722104       16.2743983100        1.7159129925
  N         4.9822725762        5.1908401256       13.8517465159
  C         5.2547623986        5.4615493868       12.5350185084
  N        17.3741318663       15.9978499562       19.7174417571
  C        17.1052044122       16.2658132119       21.0354487336
  N        17.3439687437        5.1898079834        8.9005106279
  C        17.0702207319        5.4637732987       10.2166650442
  N         4.9615546685        6.7611226937       19.7151155235
  C         5.2258360313        6.4898448601       21.0340605352
  N         4.9886219579       17.5499319411        8.8998732766
  C         5.2657911361       17.2832030519       10.2161196651
  N        17.3631338380        6.7527112707        3.0345716957
  C        17.0972305346        6.4832655019        1.7163306450
  N        17.3610351904       17.5572498590       13.8542363775
  C        17.0857429972       17.2896540669       12.5373237235
  N         4.9561498931        3.0338952872        6.7556678229
  C         5.2235759229        1.7154126602        6.4867073762
  N         4.9950572554       13.8527784335       17.5554229775
  C         5.2683383728       12.5359500102       17.2862642320
  N        17.3679525074       19.7196688026        6.7501282573
  C        17.0992077403       21.0373011946        6.4815345198
  N        17.3588759191        8.9003808971       17.5695695113
  C        17.0848365281       10.2162896359       17.2957776000
  N         4.9743984473       19.7162401087       15.9996712731
  C         5.2377571924       21.0349972204       16.2719796570
  N         4.9795497649        8.8986982594        5.1946443792
  C         5.2540218167       10.2150419226        5.4638565905
  N        17.3680973083        3.0336824762       15.9971303109
  C        17.1023176063        1.7150422222       16.2651980667
  N        17.3472556585       13.8555005734        5.1984699754
  C        17.0721178042       12.5384883560        5.4679982136
  N         2.8332784553       15.9984000928       17.5531602438
  C         1.5158895726       16.2702705189       17.2861090724
  N        13.6511380863       16.0667612768        6.6819074293
  C        12.3310618287       16.3308785053        6.4185676130
  N        19.5084198214       16.0029846509        5.1975813682
  C        20.8260859083       16.2703591628        5.4681895135
  N         8.7041734745       16.0318976528       16.0318957924
  C        10.0179342798       16.3121814361       16.3121803928
  N        19.5101456147        6.7528884686       17.5589299714
  C        20.8271373399        6.4843278002       17.2860330366
  N         8.6914027721        6.7130295370        6.7130314215
  C        10.0049429339        6.4318664541        6.4318667961
  N         2.8169809235        6.7574895752        5.2012154147
  C         1.4996267143        6.4883211248        5.4722538119
  N        13.6511342008        6.6819164165       16.0667588952
  C        12.3310585018        6.4185738637       16.3308783258
  N        15.8320275642        5.1739071732       19.7224204234
  C        16.0966734022        5.4522946012       21.0379401333
  N        15.7876548347       16.0307417272        8.8914879355
  C        16.0571493631       16.2915075767       10.2124722279
  N        15.8311075305       17.5705402693        3.0275335334
  C        16.0986810455       17.2930972370        1.7124163362
  N        15.7747724874        6.7372817129       13.8595620079
  C        16.0443370213        6.4723943472       12.5392982328
  N         6.4961906703        5.1847787541        3.0307090664
  C         6.2294831703        5.4608702955        1.7144539895
  N         6.5642108762       16.0126472232       13.8551307136
  C         6.2929841003       16.2788457508       12.5363215913
  N         6.5153229408       17.5692229628       19.7208328124
  C         6.2443099008       17.2971840835       21.0370999828
  N         6.5496688180        6.7359664996        8.8936371049
  C         6.2791609468        6.4707280564       10.2132086056
  N        19.5101488389       17.5589326711        6.7528886680
  C        20.8271396812       17.2860350097        6.4843271588
  N         8.6841815063       17.5885773423       17.5885749887
  C        10.0058767514       17.3280496918       17.3280481143
  N         2.8169754960        5.2012023210        6.7574994227
  C         1.4996228919        5.4722459779        6.4883266741
  N        13.6383893138        5.1302636827       17.6244447320
  C        12.3214896851        5.4046230166       17.3489981626
  N         2.8332748866       17.5531680880       15.9983926251
  C         1.5158865349       17.2861140535       16.2702654677
  N        13.6383879189       17.6244471963        5.1302553235
  C        12.3214884633       17.3489984801        5.4046171332
  N        19.5084181361        5.1975816841       16.0029821377
  C        20.8260837000        5.4681904002       16.2703570380
  N         8.6690847887        5.1577684712        5.1577724276
  C         9.9913281843        5.4162753439        5.4162767850
  N         6.5153156184       19.7208308397       17.5692158836
  C         6.2443034258       21.0370981578       17.2971807782
  N         6.5496729528        8.8936381435        6.7359761830
  C         6.2791655480       10.2132095699        6.4707326794
  N         6.4961898954        3.0307065983        5.1847791661
  C         6.2294824940        1.7144512722        5.4608699056
  N         6.5642121630       13.8551307563       16.0126467298
  C         6.2929837983       12.5363218332       16.2788443020
  N        15.8311066887        3.0275359727       17.5705339869
  C        16.0986794607        1.7124180904       17.2930936807
  N        15.7747777857       13.8595619570        6.7372794656
  C        16.0443391493       12.5392979835        6.4723914913
  N        15.8320296557       19.7224205515        5.1739095477
  C        16.0966732831       21.0379406866        5.4522981955
  N        15.7876503525        8.8914903472       16.0307384482
  C        16.0571460597       10.2124735343       16.2915064966
  N        17.3679471741        6.7501287015       19.7196672592
  C        17.0992058276        6.4815329658       21.0373002616
  N        17.3588811953       17.5695720383        8.9003828457
  C        17.0848404862       17.2957783675       10.2162910812
  N         4.9561491409        6.7556657814        3.0338988508
  C         5.2235755291        6.4867066725        1.7154157626
  N         4.9950570920       17.5554249248       13.8527771665
  C         5.2683395246       17.2862662395       12.5359494676
  N        17.3680974426       15.9971356662        3.0336838246
  C        17.1023183077       16.2652011348        1.7150435505
  N        17.3472543400        5.1984760172       13.8555030276
  C        17.0721176281        5.4680037614       12.5384914677
  N         4.9744039423       15.9996804043       19.7162359281
  C         5.2377623115       16.2719839848       21.0349936947
  N         4.9795445212        5.1946355420        8.8987028800
  C         5.2540166469        5.4638525902       10.2150462023
  N        17.3741274818       19.7174380850       15.9978579280
  C        17.1052002741       21.0354467818       16.2658170681
  N        17.3439671540        8.9005081556        5.1898078339
  C        17.0702192911       10.2166624881        5.4637712704
  N         4.9662131564        3.0338702743       16.0038044421
  C         5.2340738336        1.7159159814       16.2744021733
  N         4.9822667064       13.8517420975        5.1908366253
  C         5.2547609694       12.5350148965        5.4615464248
  N        17.3631336927        3.0345731934        6.7527109847
  C        17.0972289087        1.7163322971        6.4832673654
  N        17.3610381258       13.8542329828       17.5572557234
  C        17.0857441110       12.5373219729       17.2896577008
  N         4.9615560435       19.7151127479        6.7611224236
  C         5.2258368549       21.0340581123        6.4898445056
  N         4.9886213200        8.8998737629       17.5499346593
  C         5.2657889848       10.2161194813       17.2832032848
  N        19.5021040459        6.7557069514        5.1998700015
  C        20.8195369470        6.4874063627        5.4715063836
  N         8.6971401083        6.7144951465       16.0308121976
  C        10.0108867069        6.4349854935       16.3129765488
  N         2.8242002301        6.7573766430       17.5484852852
  C         1.5066719926        6.4863195842       17.2812060985
  N        13.6445891316        6.6767274741        6.6767265973
  C        12.3245498100        6.4135762908        6.4135748030
  N         2.8227235383       15.9966474462        5.1980547004
  C         1.5056534980       16.2670771542        5.4685181576
  N        13.6576084131       16.0630382159       16.0630427315
  C        12.3378022497       16.3273322052       16.3273338229
  N        19.5193114330       16.0023975425       17.5576274054
  C        20.8366223384       16.2722594798       17.2881630119
  N         8.6971429328       16.0308058931        6.7144990150
  C        10.0108892062       16.3129725719        6.4349874268
  N         6.5067367762       17.5742038664        3.0329912428
  C         6.2403887851       17.2998580227        1.7161497907
  N         6.5520607184        6.7330224536       13.8547397689
  C         6.2796925113        6.4687082509       12.5357585834
  N         6.5018807663        5.1909673049       19.7199021460
  C         6.2319333386        5.4642172212       21.0359238724
  N         6.5585536152       16.0084097101        8.8942426116
  C         6.2908148601       16.2762156542       10.2138469661
  N        15.8364741191       17.5713564189       19.7201946999
  C        16.1013379498       17.2937057381       21.0358821860
  N        15.7717662050        6.7280525530        8.8923276831
  C        16.0424360495        6.4679472471       10.2133162492
  N        15.8279832440        5.1765310048        3.0292166519
  C        16.0949355788        5.4539725415        1.7141616553
  N        15.7885023058       16.0190825159       13.8574690116
  C        16.0576470704       16.2856361688       12.5374575642
 Zn        14.4981022956       14.7694490616       14.7694518478
 Cl        13.1074510068       13.6305047470       13.6305183835
 Zn        14.5432864081        3.8497880567        3.8497874409
 Cl        13.3804278050        2.5850768774        2.5850772724
 Zn         3.6824396198       14.7093515654        3.9004493684
 Cl         2.4452570070       13.4737753166        2.6759117251
 Zn         3.6824444191        3.9004530982       14.7093561026
 Cl         2.4452687510        2.6759134889       13.4737749887
 Zn         7.8512648291        8.0116404296       14.7257831972
 Cl         9.0862948072        9.2406271055       13.4919501231
 Zn         7.7912056109       18.8781794756        3.8880812196
 Cl         9.0018762219       20.1256709253        2.6479768489
 Zn        18.6486589334        8.0484757501        3.9016725086
 Cl        19.8770650566        9.2919718545        2.6778228251
 Zn        18.6613440648       18.8459740497       14.7090906066
 Cl        19.8895733250       20.0712333647       13.4649559845
 Zn         7.8512623977       14.7257778052        8.0116403401
 Cl         9.0862848585       13.4919350572        9.2406251788
 Zn         7.7912076575        3.8880789749       18.8781865203
 Cl         9.0018734929        2.6479779374       20.1256861886
 Zn        18.6613487400       14.7090823253       18.8459829946
 Cl        19.8895747955       13.4649417996       20.0712385771
 Zn        18.6486624559        3.9016785362        8.0484687389
 Cl        19.8770813563        2.6778362135        9.2919596464
 Zn        14.4846534287        7.9684970166        7.9684980383
 Cl        13.0849357024        9.1026084072        9.1026066860
 Zn        14.5488652810       18.8885811574       18.8885859233
 Cl        13.3813992443       20.1519502517       20.1519649115
 Zn         3.6824801633        8.0553826705       18.8356892143
 Cl         2.4435123729        9.2951070352       20.0546844831
 Zn         3.6824813657       18.8356870122        8.0553821817
 Cl         2.4435155826       20.0546853989        9.2951050916
 Zn        14.4934597091       14.7817213024        7.9859530775
 Cl        13.0985395520       13.7101604254        9.1835129471
 Zn        14.5452272059        3.8514353441       18.8905579994
 Cl        13.3787191744        2.5884208268       20.1544320136
 Zn         3.6911292494       14.7073279794       18.8417802291
 Cl         2.4555154737       13.4704266679       20.0673866402
 Zn         3.6768429372        3.9051431013        8.0517786013
 Cl         2.4365425149        2.6876482347        9.2909560264
 Zn         7.8473308920        8.0127452166        8.0127510379
 Cl         9.0836470742        9.2438146513        9.2438317957
 Zn         7.8001238303       18.8738014318       18.8737955688
 Cl         9.0163817192       20.1146323691       20.1146127203
 Zn        18.6581092202        8.0459293595       18.8581132157
 Cl        19.8901742319        9.2800342544       20.0877941745
 Zn        18.6581131042       18.8581159908        8.0459313905
 Cl        19.8901803577       20.0877937251        9.2800369167
 Zn        14.4934554883        7.9859619085       14.7817158664
 Cl        13.0985312684        9.1835244584       13.7101644048
 Zn        14.5452280199       18.8905638918        3.8514327822
 Cl        13.3787274166       20.1544441894        2.5884176787
 Zn         3.6768455750        8.0517719875        3.9051561002
 Cl         2.4365381758        9.2909507286        2.6876698535
 Zn         3.6911250641       18.8417845816       14.7073191858
 Cl         2.4555112259       20.0673843052       13.4704119482
 Zn         7.8580854137       14.7282338112       14.7282331928
 Cl         9.0926797771       13.4971207709       13.4971190587
 Zn         7.7834845198        3.8799436664        3.8799451944
 Cl         8.9888837705        2.6335499380        2.6335517719
 Zn        18.6525179502       14.7089331469        3.9060096876
 Cl        19.8796462700       13.4557754186        2.6896827328
 Zn        18.6525169298        3.9060115743       14.7089306197
 Cl        19.8796431607        2.6896874075       13.4557681639
 Zn         5.7508355073        5.9621551605       16.7806655073
 Zn        16.5914460267       16.7989327602       16.7989449876
 Zn        16.5705254870        5.9496016732        5.9496003973
 Zn         5.7508309162       16.7806625653        5.9621553080
 Zn         5.7425380059        5.9611050898        5.9611110293
 Zn        16.5791493679       16.8088455571        5.9524218511
 Zn         5.7705386747       16.7813164608       16.7813125687
 Zn        16.5791412943        5.9524237570       16.8088419828
  N         3.5698106325        5.9778926471       16.7717492410
  N        14.3843811791        5.8980446450        5.8980430346
  N        18.7726416192       16.7795802484       16.7795913409
  N         7.9397383508       16.8056846736        5.9444692172
  N        18.7553410505        5.9768766890        5.9768640736
  N         7.9397383557        5.9444640339       16.8056922465
  N         3.5698115914       16.7717473763        5.9778898176
  N        14.3985607796       16.8412615359       16.8412671305
  N        16.5951958348        3.7780858925        5.9616630432
  N        16.5763959449       14.6025690722       16.7891417064
  N        16.6063188579       18.9727477028       16.7876948333
  N        16.5589539337        8.1496655601        5.9548595019
  N         5.7337156168       18.9706716816        5.9750974817
  N         5.7705357493        8.1505647310       16.7790206507
  N         5.7364505113        3.7800011451       16.7899348607
  N         5.7672044567       14.5994692110        5.9602599481
  N         5.7364435477       16.7899273754        3.7800005345
  N         5.7672131883        5.9602632286       14.5994708111
  N        16.6063240499       16.7876854600       18.9727492980
  N        16.5589558935        5.9548596375        8.1496668082
  N         5.7337150773        5.9750982893       18.9706742529
  N         5.7705358190       16.7790169164        8.1505648097
  N        16.5951967261        5.9616635776        3.7780849945
  N        16.5763916082       16.7891355843       14.6025707488
  N         5.7262941630        3.7788890359        5.9681649901
  N         5.7789527290       14.6002078367       16.7846513312
  N        16.6010405641       18.9753575412        5.9589250182
  N        16.5742269677        8.1492442583       16.8039353964
  N         5.7473421922       18.9717019399       16.7845693178
  N         5.7631887991        8.1496694049        5.9640346327
  N        16.5990962125        3.7770445192       16.7870082847
  N        16.5626812883       14.6045407857        5.9658654449
  N         3.5801818744       16.7743690340       16.7743594925
  N        14.3909706502       16.8471987289        5.9047554150
  N        18.7625860601       16.7823242475        5.9747014914
  N         7.9482236194       16.8051606356       16.8051580348
  N        18.7625834000        5.9747011863       16.7823211627
  N         7.9334102274        5.9410516930        5.9410558534
  N         3.5630705778        5.9788020921        5.9788162470
  N        14.3909689932        5.9047653864       16.8471947962
  N        16.6010353551        5.9589250909       18.9753565819
  N        16.5742327407       16.8039395653        8.1492438859
  N        16.5990963255       16.7870155583        3.7770437959
  N        16.5626767652        5.9658694525       14.6045416315
  N         5.7262940903        5.9681629499        3.7788922047
  N         5.7789510923       16.7846524801       14.6002070117
  N         5.7473488788       16.7845801761       18.9717006819
  N         5.7631843780        5.9640222975        8.1496714761
  C        11.1844153809       15.7699479629       15.7699485633
  H        11.1997672048       14.9945327830       14.9945346477
  C        11.1444319851        4.8566955748        4.8566955494
  H        11.1281502149        4.0814299651        4.0814307531
  C         0.3451592393       15.7182282078        4.9173971305
  H         0.3444278207       14.9427886343        4.1416968499
  C         0.3451598129        4.9173995777       15.7182273526
  H         0.3444307359        4.1416993371       14.9427872792
  C        11.1783409689        6.9753901016       15.7711650967
  H        11.1950082409        7.7509859833       14.9960175975
  C        11.1514553374       17.8921439566        4.8649022760
  H        11.1362083539       18.6697241783        4.0918689974
  C         0.3395057569        7.0389079789        4.9218018330
  H         0.3397219575        7.8148902456        4.1466474612
  C         0.3562673562       17.8382525069       15.7207106851
  H         0.3565359860       18.6134192705       14.9447090803
  C        11.1783462302       15.7711631710        6.9753877284
  H        11.1950187876       14.9960153148        7.7509829832
  C        11.1514589949        4.8649036587       17.8921459471
  H        11.1362165673        4.0918706381       18.6697262861
  C         0.3562764183       15.7207107237       17.8382539779
  H         0.3565575260       14.9447106001       18.6134210756
  C         0.3394960727        4.9217988601        7.0389060050
  H         0.3396998220        4.1466421630        7.8148853248
  C        11.1725857736        6.9725344932        6.9725336182
  H        11.1899923081        7.7479178725        7.7479175444
  C        11.1605641391       17.8859096649       17.8859083897
  H        11.1473931295       18.6612496817       18.6612474756
  C         0.3475405529        7.0367526160       17.8336351826
  H         0.3488341201        7.8132794369       18.6082976074
  C         0.3475452312       17.8336359976        7.0367512724
  H         0.3488425104       18.6082981449        7.8132784379
  C        15.4992656346       11.3737695466       15.7472323922
  H        14.7069432090       11.3701822744       14.9894890185
  C        15.5515630469        0.5559905956        4.8949073643
  H        14.7880424794        0.5559863613        4.1070363451
  C         4.6990157924       11.3747329582        4.9174833050
  H         3.9167643319       11.3740107883        4.1486276163
  C         4.6903584966        0.5551338091       15.7176289016
  H         3.9216926717        0.5548996366       14.9353579230
  C        15.4862423350       11.3757145447        7.0118350311
  H        14.6957868016       11.3731344316        7.7711220434
  C        15.5551126546        0.5536681734       17.8508206958
  H        14.7905903315        0.5531060328       18.6377169876
  C         4.7122845477       11.3759867476       17.8307635658
  H         3.9302052291       11.3756742543       18.5998904275
  C         4.6796345385        0.5548913363        7.0443056764
  H         3.9113944588        0.5553690349        7.8269474226
  C         6.8471521167       11.3751108162       15.7322448614
  H         7.6287646163       11.3756167335       14.9628452262
  C         6.7762512449        0.5549939266        4.9067838717
  H         7.5444494394        0.5546265543        4.1237900770
  C        17.6267904807       11.3781040585        4.9222244037
  H        18.4091502354       11.3789787735        4.1532876612
  C        17.6475326025        0.5557789188       15.7073399618
  H        18.4144061853        0.5563642943       14.9233895816
  C         6.8341275370       11.3747572527        7.0156529819
  H         7.6157629174       11.3756236893        7.7851226556
  C         6.7879347455        0.5569157275       17.8542147864
  H         7.5566460222        0.5572880966       18.6366673714
  C        17.6410379630       11.3779912499       17.8367835305
  H        18.4235831439       11.3802338562       18.6054327811
  C        17.6414865597        0.5569249986        7.0411718719
  H        18.4077550457        0.5567774577        7.8257519683
  C        15.4992663463       15.7472319432       11.3737653523
  H        14.7069436592       14.9894889406       11.3701718393
  C        15.5515658661        4.8949021999        0.5559912145
  H        14.7880460080        4.1070310176        0.5559890906
  C         4.6903596760       15.7176296444        0.5551271058
  H         3.9216917999       14.9353607375        0.5548863199
  C         4.6990136327        4.9174834999       11.3747394655
  H         3.9167630261        4.1486264744       11.3740226999
  C         6.8471535179       15.7322449599       11.3751126323
  H         7.6287640778       14.9628440327       11.3756216733
  C         6.7762522558        4.9067857801        0.5549956146
  H         7.5444517337        4.1237927695        0.5546268228
  C        17.6475353899       15.7073385285        0.5557834288
  H        18.4144079967       14.9233878216        0.5563735959
  C        17.6267933506        4.9222298153       11.3781067686
  H        18.4091561322        4.1532968810       11.3789838670
  C        15.4862419808        7.0118373147       11.3757149765
  H        14.6957855450        7.7711238676       11.3731353700
  C        15.5551166100       17.8508219813        0.5536637374
  H        14.7905954323       18.6377192611        0.5530956283
  C         4.6796332954        7.0443050678        0.5548949832
  H         3.9113924365        7.8269455238        0.5553738175
  C         4.7122863045       17.8307647238       11.3759845917
  H         3.9302061927       18.5998909974       11.3756698415
  C         6.8341264540        7.0156522310       11.3747536666
  H         7.6157631487        7.7851202301       11.3756133278
  C         6.7879375513       17.8542134029        0.5569209228
  H         7.5566492350       18.6366661542        0.5573004591
  C        17.6414852483        7.0411708224        0.5569229659
  H        18.4077514479        7.8257538593        0.5567740526
  C        17.6410392197       17.8367812624       11.3779960912
  H        18.4235850603       18.6054303923       11.3802438032
 Xe        11.7490261142       11.3634747051       11.3634727158
