     409
 i =     150, E =    -5183.7569637447
  N         2.7423302097        5.2048779350       16.0235179543
  C         1.4245269928        5.4760293223       16.2935385200
  N        13.5659060120        5.2147871201        5.2147842352
  C        12.2477023192        5.4834836394        5.4834812105
  N        19.4236240378       17.5820246565       16.0256898056
  C        20.7415117803       17.3095384050       16.2934596589
  N         8.6053914280       17.5793246809        5.2061076493
  C         9.9230436332       17.3083107399        5.4762393022
  N        19.4281882902        5.2056724286        6.7619602154
  C        20.7459841946        5.4757098256        6.4917880794
  N         8.6053924016        5.2061137360       17.5793130050
  C         9.9230410321        5.4762366978       17.3083140996
  N         2.7432289771       17.5799287481        6.7611466836
  C         1.4251871687       17.3096123391        6.4921763043
  N        13.5596384765       17.5799849132       17.5799833695
  C        12.2420221367       17.3095490918       17.3095474055
  N        15.7149251708        3.0560603346        5.2122006361
  C        15.9828259058        1.7378582999        5.4820463874
  N        15.7160453952       13.8726775043       16.0248893646
  C        15.9859842379       12.5551211946       16.2945596240
  N        15.7105416710       19.7376854417       17.5813162917
  C        15.9785331308       21.0553394398       17.3093427042
  N        15.7243320066        8.9194757148        6.7677439901
  C        15.9932328576       10.2365243862        6.4973277504
  N         6.4523536512       19.7353355554        5.2055380873
  C         6.1834958527       21.0530740312        5.4757376355
  N         6.4494585834        8.9156481260       16.0222597607
  C         6.1787508395       10.2330450033       16.2916377481
  N         6.4519471627        3.0508034902       17.5811651015
  C         6.1827726222        1.7332381942       17.3102668213
  N         6.4494866785       13.8707606518        6.7629840799
  C         6.1799899716       12.5533624887        6.4929481193
  N         4.8984235077       16.0238621968        3.0514077071
  C         5.1680801240       16.2931052198        1.7336438220
  N         4.8967001213        5.2051631931       13.8709715717
  C         5.1657451906        5.4753665780       12.5533480270
  N        17.2653410313       16.0243595927       19.7374413888
  C        16.9937878663       16.2925558573       21.0551268157
  N        17.2794417559        5.2119664911        8.9191885879
  C        17.0093003988        5.4817508808       10.2366450232
  N         4.8978419299        6.7623665226       19.7360508220
  C         5.1681681189        6.4923789560       21.0535244677
  N         4.8961992617       17.5803235731        8.9153666509
  C         5.1642872624       17.3090995731       10.2329032337
  N        17.2693121275        6.7684729000        3.0542855619
  C        16.9982574015        6.4984815429        1.7368993045
  N        17.2690688802       17.5825221741       13.8729782496
  C        17.0003789494       17.3120090237       12.5553850885
  N         4.9004368741        3.0514339493        6.7622836594
  C         5.1695995084        1.7338036585        6.4922423696
  N         4.8954742996       13.8706208676       17.5800254590
  C         5.1638798942       12.5530470222       17.3090489346
  N        17.2682575000       19.7386219892        6.7656808040
  C        16.9976574913       21.0563236972        6.4970789254
  N        17.2703051590        8.9179533189       17.5832480830
  C        17.0009480395       10.2353121527       17.3123512702
  N         4.8964818795       19.7355237060       16.0233277482
  C         5.1670329373       21.0531210317       16.2927804009
  N         4.8976109129        8.9155611012        5.2051423808
  C         5.1662432485       10.2331947107        5.4754444334
  N        17.2664770864        3.0532624462       16.0240862084
  C        16.9944201988        1.7356964775       16.2924098602
  N        17.2753091093       13.8741798618        5.2102380298
  C        17.0077923655       12.5564859864        5.4814226554
  N         2.7411470800       16.0232224767       17.5795718141
  C         1.4232034605       16.2922518120       17.3083683431
  N        13.5619424961       16.0219503991        6.7642567917
  C        12.2440999456       16.2913527193        6.4931245870
  N        19.4247079469       16.0278071985        5.2057456404
  C        20.7427703687       16.2958051355        5.4767138748
  N         8.6032161875       16.0232057647       16.0232111821
  C         9.9210045583       16.2933067330       16.2933097227
  N        19.4260797979        6.7630239203       17.5831647193
  C        20.7437294886        6.4932295100       17.3114610334
  N         8.6058644236        6.7641539496        6.7641571046
  C         9.9242264748        6.4956754514        6.4956772444
  N         2.7452638235        6.7611903145        5.2048686887
  C         1.4274078862        6.4914413108        5.4753380400
  N        13.5619461911        6.7642609963       16.0219459107
  C        12.2440942381        6.4931182429       16.2913624429
  N        15.7130665426        5.2094350501       19.7392126605
  C        15.9820030764        5.4807247749       21.0569367494
  N        15.7164581692       16.0257341818        8.9173799014
  C        15.9863122175       16.2949986529       10.2349701906
  N        15.7129346352       17.5815252514        3.0541059056
  C        15.9795740320       17.3094696404        1.7361933057
  N        15.7216840098        6.7670204542       13.8732250464
  C        15.9925407191        6.4980063036       12.5559143070
  N         6.4549580542        5.2060230052        3.0513912227
  C         6.1849968508        5.4757703111        1.7336538033
  N         6.4486414623       16.0224333280       13.8706354841
  C         6.1783641383       16.2916900208       12.5531149205
  N         6.4502228449       17.5809635375       19.7353078593
  C         6.1817484928       17.3100174098       21.0529060174
  N         6.4502299617        6.7636714625        8.9163663617
  C         6.1803490190        6.4932324628       10.2335915716
  N        19.4260814669       17.5831564421        6.7630173310
  C        20.7437394216       17.3114588541        6.4932237744
  N         8.6033151092       17.5795978502       17.5795933604
  C         9.9210009005       17.3093790122       17.3093770106
  N         2.7452635820        5.2048651201        6.7611875832
  C         1.4274075321        5.4753358824        6.4914400181
  N        13.5622127317        5.2098744932       17.5801010158
  C        12.2443515383        5.4780919600       17.3085190585
  N         2.7411459481       17.5795757743       16.0232149670
  C         1.4231967131       17.3083678069       16.2922508148
  N        13.5622129303       17.5800947520        5.2098797888
  C        12.2443379291       17.3085111542        5.4780952696
  N        19.4247037749        5.2057436809       16.0278071463
  C        20.7427671635        5.4767202443       16.2958083783
  N         8.6089065037        5.2078487288        5.2078452232
  C         9.9262538940        5.4795975281        5.4795958769
  N         6.4502121110       19.7353086400       17.5809773725
  C         6.1817616881       21.0529020163       17.3100235882
  N         6.4502332733        8.9163656540        6.7636686363
  C         6.1803530841       10.2335854354        6.4932267136
  N         6.4549707707        3.0513877983        5.2060407337
  C         6.1849846656        1.7336506985        5.4757727256
  N         6.4486263605       13.8706365613       16.0224210478
  C         6.1783644515       12.5531123904       16.2916863604
  N        15.7129278609        3.0541077326       17.5815282379
  C        15.9795800508        1.7361895324       17.3094568703
  N        15.7216935681       13.8732270155        6.7670106024
  C        15.9925373156       12.5559111385        6.4980073587
  N        15.7130682368       19.7392129410        5.2094441474
  C        15.9819962546       21.0569386064        5.4807219704
  N        15.7164484292        8.9173820202       16.0257253156
  C        15.9863127053       10.2349656590       16.2950011415
  N        17.2682650313        6.7656867728       19.7386234778
  C        16.9976572983        6.4970759099       21.0563170828
  N        17.2703015728       17.5832430659        8.9179532385
  C        17.0009551692       17.3123553715       10.2353149853
  N         4.9004287831        6.7622626303        3.0514390735
  C         5.1696061530        6.4922445030        1.7338066223
  N         4.8954834090       17.5800461718       13.8706197400
  C         5.1638851451       17.3090485470       12.5530443708
  N        17.2664702114       16.0240937925        3.0532632756
  C        16.9944191709       16.2924149541        1.7356816682
  N        17.2753151494        5.2102362577       13.8741797608
  C        17.0077887629        5.4814284992       12.5564902933
  N         4.8964908078       16.0233092871       19.7355257185
  C         5.1670264245       16.2927788116       21.0531147053
  N         4.8976089317        5.2051533384        8.9155621777
  C         5.1662326375        5.4754471918       10.2331915959
  N        17.2653401184       19.7374460520       16.0243573750
  C        16.9937895266       21.0551203090       16.2925480091
  N        17.2794378048        8.9191868004        5.2119648039
  C        17.0092977136       10.2366438342        5.4817491352
  N         4.8983957291        3.0514047865       16.0238951536
  C         5.1680751579        1.7336357435       16.2931164291
  N         4.8967221924       13.8709735688        5.2051372349
  C         5.1657653112       12.5533418118        5.4753515123
  N        17.2693107367        3.0542877972        6.7684745357
  C        16.9982560211        1.7368980972        6.4984823542
  N        17.2690691804       13.8729766948       17.5825248219
  C        17.0003774126       12.5553823024       17.3120102704
  N         4.8978806531       19.7360436633        6.7623981540
  C         5.1681757821       21.0535160071        6.4923883087
  N         4.8961597769        8.9153711085       17.5802886282
  C         5.1642718570       10.2329035855       17.3090832780
  N        19.4281879621        6.7619621403        5.2056734596
  C        20.7459852921        6.4917889120        5.4757106253
  N         8.6046469105        6.7617219192       16.0221759181
  C         9.9225758741        6.4916763080       16.2916034461
  N         2.7432206080        6.7611425399       17.5799243794
  C         1.4251720372        6.4921807656       17.3096140245
  N        13.5634116236        6.7709877837        6.7709873748
  C        12.2458371385        6.4995825791        6.4995815130
  N         2.7423380531       16.0235095123        5.2048709683
  C         1.4245427412       16.2935386868        5.4760270662
  N        13.5606467983       16.0237372978       16.0237360522
  C        12.2426056550       16.2934681444       16.2934665622
  N        19.4236260528       16.0256872830       17.5820252949
  C        20.7415075329       16.2934548137       17.3095416152
  N         8.6046477765       16.0221795414        6.7617230679
  C         9.9225558208       16.2916000360        6.4916785236
  N         6.4519790395       17.5811407804        3.0508076765
  C         6.1827768443       17.3102577036        1.7332389547
  N         6.4494661348        6.7630058075       13.8707592299
  C         6.1799695528        6.4929585077       12.5533521856
  N         6.4523155589        5.2055089732       19.7353421501
  C         6.1834870867        5.4757326725       21.0530754868
  N         6.4494918615       16.0222966030        8.9156433842
  C         6.1787689171       16.2916475213       10.2330417933
  N        15.7105425330       17.5813186994       19.7376841469
  C        15.9785294673       17.3093523789       21.0553277762
  N        15.7243337538        6.7677424771        8.9194758229
  C        15.9932357896        6.4973264116       10.2365253364
  N        15.7149300573        5.2121956804        3.0560589478
  C        15.9828312449        5.4820457176        1.7378538334
  N        15.7160450027       16.0248857830       13.8726777770
  C        15.9859848387       16.2945560955       12.5551208337
 Zn        14.4266260747       14.7299311615       14.7299319821
 Cl        13.1975593179       13.4957479784       13.4957482527
 Zn        14.4273676032        3.9214095339        3.9214093076
 Cl        13.1892412373        2.6912066354        2.6912059153
 Zn         3.6082882004       14.7301360879        3.9102348462
 Cl         2.3766831813       13.4974363332        2.6771936870
 Zn         3.6082705975        3.9102216353       14.7301303963
 Cl         2.3766691332        2.6771817551       13.4974301491
 Zn         7.7407975773        8.0554853989       14.7287261719
 Cl         8.9735591902        9.2881704048       13.4969620185
 Zn         7.7421216414       18.8737691847        3.9116539835
 Cl         8.9771782609       20.1066377391        2.6824359407
 Zn        18.5638705472        8.0570515259        3.9138259109
 Cl        19.7965360312        9.2901473815        2.6821858372
 Zn        18.5590509778       18.8760034716       14.7329314476
 Cl        19.7907803745       20.1083884185       13.4998484242
 Zn         7.7407913854       14.7287387594        8.0554756876
 Cl         8.9735479556       13.4969681433        9.2881614007
 Zn         7.7421290101        3.9116414408       18.8737799331
 Cl         8.9771847746        2.6824273286       20.1066536838
 Zn        18.5590528583       14.7329331711       18.8760026691
 Cl        19.7907698352       13.4998502083       20.1083992625
 Zn        18.5638723881        3.9138249037        8.0570508668
 Cl        19.7965373287        2.6821839174        9.2901465401
 Zn        14.4363553427        8.0624699801        8.0624702396
 Cl        13.2197972994        9.3032240465        9.3032253343
 Zn        14.4202345461       18.8745600240       18.8745603481
 Cl        13.1836938802       20.1048940489       20.1048831152
 Zn         3.6071824903        8.0543441153       18.8743403238
 Cl         2.3711656694        9.2866501190       20.1034257879
 Zn         3.6072022342       18.8743307018        8.0543369152
 Cl         2.3711739948       20.1034116656        9.2866375967
 Zn        14.4288093399       14.7289199004        8.0573503098
 Cl        13.2041614862       13.4920486497        9.2934047091
 Zn        14.4245736141        3.9165020627       18.8753228316
 Cl        13.1872975272        2.6846923920       20.1038608305
 Zn         3.6062636523       14.7298555572       18.8740354340
 Cl         2.3723705380       13.4974165367       20.1050515484
 Zn         3.6096353604        3.9101207072        8.0544120382
 Cl         2.3758939890        2.6787232553        9.2866568762
 Zn         7.7411926096        8.0565885981        8.0565888802
 Cl         8.9736924021        9.2890851555        9.2890921697
 Zn         7.7407839068       18.8737988454       18.8738015517
 Cl         8.9754249457       20.1050394846       20.1050494104
 Zn        18.5611475714        8.0562408595       18.8761332979
 Cl        19.7918210775        9.2905231995       20.1084933941
 Zn        18.5611535808       18.8761392119        8.0562470978
 Cl        19.7918318771       20.1084989194        9.2905210179
 Zn        14.4288162833        8.0573437471       14.7289284323
 Cl        13.2041570970        9.2933919453       13.4920585634
 Zn        14.4245585833       18.8753303397        3.9164943230
 Cl        13.1872769772       20.1038668355        2.6846935570
 Zn         3.6096335765        8.0544058826        3.9101159609
 Cl         2.3758980679        9.2866610542        2.6787242406
 Zn         3.6062627873       18.8740403326       14.7298606992
 Cl         2.3723762697       20.1050558748       13.4974152914
 Zn         7.7399101240       14.7289478898       14.7289517982
 Cl         8.9728940978       13.4969180288       13.4969217945
 Zn         7.7446770729        3.9130027645        3.9130108525
 Cl         8.9801005741        2.6820909391        2.6820959330
 Zn        18.5605755019       14.7336883836        3.9121314972
 Cl        19.7943013973       13.5004988854        2.6818507314
 Zn        18.5605698337        3.9121442280       14.7337003443
 Cl        19.7942976975        2.6818669233       13.5005037653
 Zn         5.6760925914        5.9871882095       16.8061997957
 Zn        16.4940234344       16.8089171565       16.8089151338
 Zn        16.4985369385        5.9934653736        5.9934647798
 Zn         5.6760944806       16.8061933973        5.9871891032
 Zn         5.6775088385        5.9875896023        5.9875904956
 Zn        16.4957334669       16.8092907415        5.9904376641
 Zn         5.6750074474       16.8059543456       16.8059484982
 Zn        16.4957355061        5.9904403458       16.8092889775
  N         3.4890934420        5.9824302140       16.8019482269
  N        14.3110606062        5.9933368470        5.9933351254
  N        18.6773422950       16.8052793427       16.8052796000
  N         7.8587662804       16.8013042665        5.9840521957
  N        18.6819287278        5.9840169547        5.9840165944
  N         7.8587767245        5.9840570168       16.8013130781
  N         3.4891131725       16.8019435970        5.9824391484
  N        14.3065329759       16.8021681212       16.8021682775
  N        16.4930315196        3.8020133262        5.9902976739
  N        16.4921966147       14.6196366848       16.8039947861
  N        16.4890933581       18.9911720259       16.8040629557
  N        16.5021029235        8.1728078624        5.9901822453
  N         5.6750189551       18.9891730889        5.9841663834
  N         5.6738985775        8.1690162528       16.8022380502
  N         5.6751882419        3.7978851950       16.8027594917
  N         5.6735045297       14.6176797861        5.9837853918
  N         5.6751774087       16.8027698181        3.7978909572
  N         5.6735323687        5.9837479817       14.6176808225
  N        16.4890923336       16.8040640940       18.9911672065
  N        16.5021057928        5.9901820995        8.1728109358
  N         5.6750412946        5.9841865861       18.9891749972
  N         5.6738622450       16.8021976676        8.1690217518
  N        16.4930352322        5.9902938982        3.8020094804
  N        16.4921964924       16.8039918859       14.6196397039
  N         5.6780801918        3.7981881430        5.9845546989
  N         5.6728376925       14.6174153167       16.8020218031
  N        16.4912111493       18.9924561918        5.9868694369
  N        16.4932405992        8.1712720336       16.8049466184
  N         5.6730194026       18.9889100370       16.8024144116
  N         5.6746346185        8.1694403370        5.9840960290
  N        16.4913060407        3.8004661303       16.8040144266
  N        16.4974698457       14.6205696036        5.9880342335
  N         3.4874713664       16.8021092458       16.8021083577
  N        14.3084452881       16.8018340721        5.9878146785
  N        18.6791309545       16.8064394803        5.9840376345
  N         7.8570172904       16.8014595613       16.8014669684
  N        18.6791066827        5.9840376330       16.8064461253
  N         7.8611278296        5.9852760003        5.9852765767
  N         3.4915883034        5.9828361855        5.9828370722
  N        14.3084675685        5.9878146363       16.8018364602
  N        16.4912158610        5.9868678459       18.9924383049
  N        16.4932408930       16.8049469460        8.1712893128
  N        16.4913028804       16.8040137745        3.8004467828
  N        16.4974711454        5.9880374585       14.6205870833
  N         5.6780587451        5.9845241964        3.7981964765
  N         5.6728490286       16.8020331830       14.6174121066
  N         5.6730406062       16.8023822973       18.9889148686
  N         5.6746317308        5.9841045817        8.1694370198
  C        11.0819075238       15.7431493266       15.7431519372
  H        11.0818155325       14.9676062797       14.9676134746
  C        11.0887302782        4.9313139324        4.9313127175
  H        11.0917332444        4.1557402725        4.1557428440
  C         0.2629918379       15.7442041117        4.9264773027
  H         0.2616158194       14.9684842397        4.1510962942
  C         0.2629767779        4.9264818943       15.7442091331
  H         0.2616097678        4.1510904992       14.9684928798
  C        11.0829740027        7.0419759082       15.7406244488
  H        11.0820048464        7.8170716290       14.9646500465
  C        11.0840621385       17.8588987835        4.9271829055
  H        11.0846597552       18.6352078826        4.1523828974
  C         0.2666791026        7.0419665818        4.9254403396
  H         0.2665402396        7.8177919329        4.1501670692
  C         0.2623527281       17.8585074745       15.7420887108
  H         0.2622745381       18.6338434392       14.9663343896
  C        11.0829663463       15.7406187635        7.0419787859
  H        11.0819983801       14.9646464238        7.8170748594
  C        11.0840682915        4.9271865019       17.8588991291
  H        11.0846585837        4.1523824933       18.6352113773
  C         0.2623548909       15.7420880842       17.8585074102
  H         0.2622801419       14.9663331135       18.6338441952
  C         0.2666795440        4.9254382836        7.0419637191
  H         0.2665390761        4.1501626271        7.8177871600
  C        11.0832897133        7.0478120698        7.0478155989
  H        11.0797701895        7.8233150080        7.8233263824
  C        11.0814229348       17.8597338340       17.8597320832
  H        11.0812470373       18.6352850062       18.6352854834
  C         0.2651103243        7.0433426926       17.8602550191
  H         0.2662837802        7.8192259910       18.6354580700
  C         0.2651191770       17.8602549300        7.0433427208
  H         0.2662872684       18.6354469925        7.8192298658
  C        15.4365192876       11.3948841871       15.7430980136
  H        14.6620650784       11.3944883072       14.9663642337
  C        15.4318129037        0.5779325618        4.9310417527
  H        14.6563302676        0.5788135999        4.1554148408
  C         4.6162422127       11.3931641001        4.9238751066
  H         3.8419583067       11.3929520622        4.1470056604
  C         4.6180028710        0.5737047336       15.7414481790
  H         3.8435432283        0.5743570519       14.9647451821
  C        15.4427640751       11.3958553964        7.0489726316
  H        14.6682469334       11.3948274255        7.8255562616
  C        15.4284692779        0.5760193651       17.8596995464
  H        14.6534466580        0.5764610938       18.6357897258
  C         4.6139593767       11.3929167548       17.8601806990
  H         3.8394208878       11.3927806923       18.6367876298
  C         4.6187338643        0.5740278465        7.0432625076
  H         3.8436969500        0.5747654964        7.8193793145
  C         6.7281784419       11.3932004789       15.7400953411
  H         7.5029358880       11.3933440807       14.9637238676
  C         6.7346383681        0.5730545295        4.9251540858
  H         7.5102685784        0.5724185345        4.1496610115
  C        17.5593620435       11.3968905343        4.9310095080
  H        18.3343847500       11.3973471904        4.1549708611
  C        17.5435119414        0.5752599760       15.7409883000
  H        18.3185938931        0.5749318876       14.9649413332
  C         6.7298829763       11.3936394031        7.0446622473
  H         7.5043571031       11.3938525532        7.8213152477
  C         6.7324872427        0.5728103800       17.8609657642
  H         7.5075160605        0.5722627470       18.6370422524
  C        17.5506325078       11.3955796596       17.8633464677
  H        18.3251951703       11.3958724157       18.6398744907
  C        17.5479020498        0.5761730198        7.0487085460
  H        18.3231987568        0.5754057681        7.8245356713
  C        15.4365244743       15.7430979314       11.3948867785
  H        14.6620700900       14.9663597241       11.3944875630
  C        15.4318142041        4.9310378453        0.5779270592
  H        14.6563355281        4.1554113044        0.5788096400
  C         4.6179888167       15.7414496593        0.5737106703
  H         3.8435231792       14.9647596510        0.5743530641
  C         4.6162393369        4.9238821829       11.3931590764
  H         3.8419673481        4.1469917686       11.3929520977
  C         6.7281719857       15.7400857190       11.3931979211
  H         7.5029025250       14.9636922924       11.3933404686
  C         6.7346498420        4.9251676503        0.5730586191
  H         7.5102942407        4.1496799320        0.5724106817
  C        17.5435090380       15.7409959608        0.5752533361
  H        18.3185905987       14.9649457793        0.5749274410
  C        17.5593646688        4.9310097481       11.3968963742
  H        18.3343860659        4.1549727314       11.3973507766
  C        15.4427621265        7.0489751971       11.3958580757
  H        14.6682448145        7.8255537556       11.3948265853
  C        15.4284715116       17.8597049319        0.5760130574
  H        14.6534465865       18.6357973804        0.5764571627
  C         4.6187477368        7.0432680374        0.5740335874
  H         3.8437162486        7.8193969727        0.5747665552
  C         4.6139520961       17.8601780990       11.3929142151
  H         3.8393956608       18.6367586190       11.3927766679
  C         6.7298788842        7.0446599262       11.3936405328
  H         7.5043750713        7.8212970740       11.3938514258
  C         6.7324771386       17.8609754953        0.5728104025
  H         7.5074921957       18.6370551967        0.5722515376
  C        17.5479049262        7.0487106256        0.5761678733
  H        18.3231981877        7.8245374778        0.5754033809
  C        17.5506342587       17.8633429115       11.3955855817
  H        18.3252015187       18.6398697359       11.3958771741
 Xe        17.3191533946       10.3349909766       10.3349884216
