     409
 i =     150, E =    -5183.7575412212
  N         2.7491263447        5.2046039442       16.0237815435
  C         1.4314066160        5.4760576716       16.2941157861
  N        13.5730759502        5.2148907432        5.2148870374
  C        12.2549623626        5.4837086326        5.4837059890
  N        19.4296717532       17.5827972087       16.0264221373
  C        20.7476187196       17.3100378544       16.2939360793
  N         8.6121354431       17.5788787845        5.2054005771
  C         9.9297530627       17.3083708794        5.4763483139
  N        19.4359041696        5.2074636262        6.7635639151
  C        20.7537573824        5.4764779342        6.4925386002
  N         8.6121345193        5.2054018570       17.5788806535
  C         9.9297515751        5.4763505624       17.3083721745
  N         2.7505569338       17.5804386025        6.7608386333
  C         1.4324512117       17.3102589500        6.4921442473
  N        13.5666114867       17.5802299450       17.5802301296
  C        12.2489592779       17.3096693137       17.3096695165
  N        15.7236949023        3.0574262100        5.2131690170
  C        15.9919915494        1.7393239556        5.4828368985
  N        15.7239783178       13.8730273617       16.0246412441
  C        15.9946582914       12.5555396974       16.2936298273
  N        15.7179683074       19.7388072464       17.5827461976
  C        15.9861538505       21.0565125535       17.3112762577
  N        15.7263921368        8.9211958681        6.7664683943
  C        15.9938347069       10.2379539443        6.4931336198
  N         6.4607981471       19.7351121388        5.2054885812
  C         6.1931365716       21.0529583951        5.4764039604
  N         6.4565466769        8.9152082961       16.0227720688
  C         6.1863233212       10.2326437396       16.2923858512
  N         6.4588550226        3.0502594558       17.5800971291
  C         6.1902360073        1.7327035729       17.3087340081
  N         6.4562837339       13.8705434257        6.7620989326
  C         6.1876051437       12.5530941504        6.4914998980
  N         4.9054736680       16.0227079174        3.0508637660
  C         5.1756403094       16.2914750822        1.7331169474
  N         4.9037657073        5.2041088331       13.8705999179
  C         5.1735216383        5.4737797867       12.5530084991
  N        17.2720267908       16.0253703403       19.7386706975
  C        17.0010494004       16.2941526032       21.0563177913
  N        17.2851318418        5.2141818588        8.9197945515
  C        17.0129334203        5.4806760214       10.2374847585
  N         4.9063996373        6.7622957600       19.7362290961
  C         5.1777644288        6.4929724929       21.0535588743
  N         4.9040914628       17.5814000290        8.9150173149
  C         5.1722789171       17.3102564033       10.2325242050
  N        17.2776425493        6.7698236364        3.0558831247
  C        17.0071716580        6.4995382497        1.7383945940
  N        17.2756730243       17.5834179905       13.8734636281
  C        17.0081594583       17.3119492149       12.5558253148
  N         4.9097961857        3.0512434273        6.7624957667
  C         5.1796741812        1.7337245896        6.4929796416
  N         4.9025300149       13.8700646921       17.5804297857
  C         5.1714701196       12.5525378495       17.3098551470
  N        17.2759333005       19.7399844404        6.7674675219
  C        17.0062092824       21.0577899372        6.4983277814
  N        17.2779230112        8.9184332671       17.5829690542
  C        17.0092330932       10.2358212619       17.3115827825
  N         4.9034362759       19.7351938448       16.0221075450
  C         5.1745163077       21.0527307416       16.2911448724
  N         4.9050897315        8.9153310359        5.2038290201
  C         5.1742237231       10.2329390655        5.4737075041
  N        17.2733606100        3.0544077175       16.0261087730
  C        17.0017036229        1.7368641523       16.2945873078
  N        17.2818775828       13.8750329984        5.2097669095
  C        17.0121385695       12.5573705765        5.4790199597
  N         2.7474351858       16.0227476161       17.5792360106
  C         1.4294651558       16.2921518135       17.3082862175
  N        13.5682770138       16.0235416277        6.7669811851
  C        12.2505819465       16.2925451039        6.4949137567
  N        19.4314258041       16.0289634340        5.2064378405
  C        20.7496202431       16.2968004290        5.4771950473
  N         8.6098623330       16.0229398186       16.0229393787
  C         9.9277514011       16.2931496431       16.2931499156
  N        19.4332417601        6.7637014745       17.5842883346
  C        20.7508634546        6.4937083427       17.3124610261
  N         8.6132642240        6.7649095317        6.7649134746
  C         9.9316807660        6.4964445356        6.4964471461
  N         2.7530078881        6.7600261421        5.2036207522
  C         1.4351941099        6.4907702512        5.4746799033
  N        13.5682754988        6.7669818288       16.0235424792
  C        12.2505809657        6.4949138874       16.2925472408
  N        15.7211008091        5.2111176523       19.7408201765
  C        15.9907508934        5.4818034074       21.0584776693
  N        15.7256220123       16.0239384061        8.9179002084
  C        15.9955861480       16.2932310603       10.2354597934
  N        15.7203628663       17.5839058624        3.0551967468
  C        15.9871714644       17.3119400784        1.7372420622
  N        15.7243356859        6.7624581351       13.8745865271
  C        15.9938362279        6.4924764161       12.5573054047
  N         6.4646810915        5.2065714409        3.0513538769
  C         6.1952656598        5.4767057060        1.7335452810
  N         6.4552117807       16.0224959981       13.8702476746
  C         6.1856509067       16.2922102038       12.5526912977
  N         6.4568214673       17.5799346248       19.7347802970
  C         6.1890868079       17.3085210336       21.0523972801
  N         6.4572998824        6.7626625825        8.9160635703
  C         6.1881203589        6.4917072595       10.2333188281
  N        19.4332425824       17.5842888746        6.7636997686
  C        20.7508638397       17.3124609706        6.4937071507
  N         8.6097864481       17.5793577900       17.5793580525
  C         9.9275704054       17.3092447598       17.3092453272
  N         2.7530085612        5.2036173586        6.7600252017
  C         1.4351952762        5.4746769777        6.4907701379
  N        13.5691696861        5.2119475917       17.5811413954
  C        12.2511835863        5.4795628668       17.3093783805
  N         2.7474369670       17.5792326969       16.0227511899
  C         1.4294680122       17.3082832858       16.2921549523
  N        13.5691703079       17.5811399581        5.2119450962
  C        12.2511841632       17.3093773656        5.4795606360
  N        19.4314244746        5.2064391573       16.0289642174
  C        20.7496179647        5.4771974938       16.2968024064
  N         8.6163914134        5.2086772655        5.2086812991
  C         9.9337097214        5.4803588852        5.4803611502
  N         6.4568208457       19.7347822712       17.5799369394
  C         6.1890840540       21.0523992909       17.3085252367
  N         6.4573030609        8.9160603402        6.7626603873
  C         6.1881285024       10.2333158626        6.4917009175
  N         6.4646812012        3.0513527891        5.2065765583
  C         6.1952676766        1.7335433090        5.4767106925
  N         6.4552111551       13.8702464857       16.0224924940
  C         6.1856453217       12.5526912877       16.2922042914
  N        15.7203604644        3.0551977765       17.5839035924
  C        15.9871681928        1.7372422312       17.3119367113
  N        15.7243361807       13.8745864017        6.7624574413
  C        15.9938356273       12.5573058186        6.4924747298
  N        15.7210955822       19.7408217143        5.2111163982
  C        15.9907449828       21.0584790918        5.4818027513
  N        15.7256203656        8.9178987930       16.0239393534
  C        15.9955845071       10.2354578377       16.2932330650
  N        17.2759355991        6.7674700910       19.7399844110
  C        17.0062127247        6.4983289165       21.0577907820
  N        17.2779253514       17.5829687348        8.9184339087
  C        17.0092359415       17.3115817333       10.2358206994
  N         4.9097951485        6.7624909323        3.0512444709
  C         5.1796724168        6.4929738485        1.7337262323
  N         4.9025307694       17.5804332154       13.8700651713
  C         5.1714754458       17.3098619539       12.5525382654
  N        17.2733642543       16.0261107540        3.0544064689
  C        17.0017080129       16.2945897816        1.7368629047
  N        17.2818764437        5.2097684141       13.8750331538
  C        17.0121381408        5.4790228318       12.5573706396
  N         4.9034378459       16.0221046015       19.7351922472
  C         5.1745184868       16.2911397058       21.0527307364
  N         4.9050861880        5.2038316964        8.9153334160
  C         5.1742158660        5.4737149464       10.2329404516
  N        17.2720251835       19.7386713532       16.0253687529
  C        17.0010466575       21.0563184081       16.2941502098
  N        17.2851333130        8.9197947952        5.2141799407
  C        17.0129340623       10.2374853443        5.4806735033
  N         4.9054752317        3.0508658413       16.0227088203
  C         5.1756381865        1.7331174185       16.2914789500
  N         4.9037665229       13.8705966522        5.2041092082
  C         5.1735292519       12.5530066349        5.4737740629
  N        17.2776419477        3.0558830065        6.7698245055
  C        17.0071706896        1.7383931927        6.4995397591
  N        17.2756713753       13.8734631386       17.5834195673
  C        17.0081559801       12.5558267158       17.3119502551
  N         4.9063968959       19.7362282821        6.7622944601
  C         5.1777648544       21.0535573472        6.4929746731
  N         4.9040920191        8.9150163485       17.5814034116
  C         5.1722734905       10.2325237959       17.3102528942
  N        19.4359045219        6.7635641051        5.2074651646
  C        20.7537564662        6.4925372055        5.4764813120
  N         8.6109635116        6.7614346489       16.0221355569
  C         9.9289887071        6.4920686301       16.2918997998
  N         2.7505576517        6.7608366722       17.5804414365
  C         1.4324522111        6.4921429515       17.3102602288
  N        13.5706647930        6.7709473394        6.7709446169
  C        12.2531766063        6.4997683763        6.4997666150
  N         2.7491265780       16.0237774943        5.2046047987
  C         1.4314073786       16.2941124821        5.4760569998
  N        13.5676599242       16.0237734250       16.0237739125
  C        12.2495602636       16.2935549154       16.2935553083
  N        19.4296699915       16.0264234882       17.5827937858
  C        20.7476158102       16.2939378804       17.3100350545
  N         8.6109654921       16.0221325280        6.7614346391
  C         9.9289906296       16.2918966601        6.4920683578
  N         6.4588544593       17.5800969743        3.0502572010
  C         6.1902393692       17.3087310960        1.7327012078
  N         6.4562831504        6.7620959364       13.8705473735
  C         6.1875971966        6.4915036110       12.5530976729
  N         6.4608008150        5.2054917617       19.7351130788
  C         6.1931355605        5.4764034862       21.0529600006
  N         6.4565463005       16.0227667572        8.9152102556
  C         6.1863292130       16.2923875763       10.2326443230
  N        15.7179705569       17.5827482021       19.7388068700
  C        15.9861561937       17.3112797504       21.0565134656
  N        15.7263902508        6.7664694594        8.9211956550
  C        15.9938346971        6.4931349445       10.2379526475
  N        15.7236964348        5.2131662018        3.0574255311
  C        15.9919943408        5.4828349796        1.7393234980
  N        15.7239803819       16.0246394703       13.8730281844
  C        15.9946608722       16.2936278650       12.5555407480
 Zn        14.4345154757       14.7300618108       14.7300638673
 Cl        13.2093257149       13.4938712408       13.4938725496
 Zn        14.4356195866        3.9225654512        3.9225700314
 Cl        13.1992555189        2.6914930334        2.6914856047
 Zn         3.6146180947       14.7298322293        3.9100039527
 Cl         2.3830283223       13.4969696367        2.6772015305
 Zn         3.6146178128        3.9100064704       14.7298357382
 Cl         2.3830311005        2.6772000431       13.4969750201
 Zn         7.7460663364        8.0551113845       14.7285284618
 Cl         8.9803183031        9.2874121818       13.4976174292
 Zn         7.7482219069       18.8731915504        3.9104708115
 Cl         8.9839894387       20.1049946102        2.6807844553
 Zn        18.5706655674        8.0583726162        3.9170723670
 Cl        19.8033400878        9.2921336975        2.6857433331
 Zn        18.5641875079       18.8768849541       14.7337842889
 Cl        19.7969121558       20.1093439205       13.5015124715
 Zn         7.7460688537       14.7285237901        8.0551128598
 Cl         8.9803188616       13.4976118323        9.2874153437
 Zn         7.7482218514        3.9104741534       18.8731921719
 Cl         8.9839883490        2.6807877759       20.1049956791
 Zn        18.5641877096       14.7337848086       18.8768840397
 Cl        19.7969072206       13.5015104299       20.1093460680
 Zn        18.5706638988        3.9170781408        8.0583730462
 Cl        19.8033347628        2.6857415692        9.2921298139
 Zn        14.4398906343        8.0634320780        8.0634307500
 Cl        13.1987280536        9.2922809142        9.2922824629
 Zn        14.4289139374       18.8750648068       18.8750652502
 Cl        13.1909502830       20.1048178520       20.1048181962
 Zn         3.6150117427        8.0538587166       18.8749201402
 Cl         2.3796001916        9.2861568398       20.1045796956
 Zn         3.6150102340       18.8749196091        8.0538601719
 Cl         2.3795988751       20.1045785920        9.2861598148
 Zn        14.4358924950       14.7291310793        8.0577362211
 Cl        13.2185451667       13.4867098908        9.2956780631
 Zn        14.4326273054        3.9194213495       18.8766407075
 Cl        13.1951119683        2.6876427318       20.1052252354
 Zn         3.6129964466       14.7292743177       18.8737906855
 Cl         2.3791742659       13.4967184970       20.1047377362
 Zn         3.6169931485        3.9090922749        8.0537132704
 Cl         2.3840773960        2.6764551761        9.2853842437
 Zn         7.7467180550        8.0568260182        8.0568286022
 Cl         8.9769929694        9.2905087453        9.2905144036
 Zn         7.7458803785       18.8734851859       18.8734846314
 Cl         8.9804552739       20.1048456049       20.1048458552
 Zn        18.5676145968        8.0572708230       18.8766525521
 Cl        19.7988383191        9.2919977535       20.1082597756
 Zn        18.5676112496       18.8766515811        8.0572669185
 Cl        19.7988392644       20.1082552102        9.2919916291
 Zn        14.4358890036        8.0577370005       14.7291281702
 Cl        13.2185365990        9.2956788767       13.4867103345
 Zn        14.4326281071       18.8766390960        3.9194197888
 Cl        13.1951100153       20.1052241050        2.6876459802
 Zn         3.6169927251        8.0537108300        3.9090924017
 Cl         2.3840765757        9.2853830080        2.6764572899
 Zn         3.6129950452       18.8737905377       14.7292791331
 Cl         2.3791795936       20.1047377848       13.4967163756
 Zn         7.7450782987       14.7287473711       14.7287444935
 Cl         8.9789261181       13.4970092484       13.4970148940
 Zn         7.7538511919        3.9135808700        3.9135881219
 Cl         8.9912665398        2.6836216806        2.6836238027
 Zn        18.5664002119       14.7353950811        3.9126473268
 Cl        19.8011108359       13.5035764060        2.6817316185
 Zn        18.5663997697        3.9126444213       14.7353924312
 Cl        19.8011171511        2.6817338428       13.5035736558
 Zn         5.6806618290        5.9862026548       16.8060553814
 Zn        16.4986382383       16.8096453357       16.8096418816
 Zn        16.5030750124        5.9948419394        5.9948408915
 Zn         5.6806612246       16.8060530113        5.9862093757
 Zn         5.6828070977        5.9871771477        5.9871726145
 Zn        16.5006608930       16.8104517903        5.9915744736
 Zn         5.6792774453       16.8053563905       16.8053592345
 Zn        16.5006605220        5.9915777490       16.8104540538
  N         3.4960888784        5.9820421047       16.8022364833
  N        14.3182063040        5.9934799205        5.9934764678
  N        18.6833771992       16.8061457050       16.8061448511
  N         7.8652976313       16.8008433243        5.9831305128
  N        18.6895266129        5.9861990756        5.9861988023
  N         7.8652969904        5.9831304405       16.8008455034
  N         3.4960897118       16.8022325481        5.9820441054
  N        14.3134193875       16.8023393816       16.8023396304
  N        16.5012563904        3.8034534685        5.9916175063
  N        16.4989376389       14.6201058350       16.8047635607
  N        16.4958985833       18.9922707463       16.8049836493
  N        16.5071350364        8.1739486156        5.9921871777
  N         5.6825984758       18.9891370075        5.9834137853
  N         5.6808753797        8.1685975817       16.8025965169
  N         5.6816251700        3.7973320618       16.8021625627
  N         5.6797700171       14.6174005975        5.9834024902
  N         5.6816236018       16.8021614663        3.7973316255
  N         5.6797717668        5.9833990156       14.6174028758
  N        16.4958998183       16.8049852919       18.9922704928
  N        16.5071330197        5.9921878657        8.1739478297
  N         5.6826001494        5.9834157551       18.9891391047
  N         5.6808742976       16.8025910919        8.1685982804
  N        16.5012580598        5.9916167467        3.8034535688
  N        16.4989387538       16.8047619377       14.6201057563
  N         5.6869382404        3.7980510338        5.9844018823
  N         5.6790877221       14.6169539996       16.8017872558
  N        16.4985814108       18.9938744297        5.9889604348
  N        16.5013468397        8.1717992872       16.8041990050
  N         5.6792107570       18.9884573965       16.8017872360
  N         5.6812189050        8.1691956353        5.9836113642
  N        16.4983021508        3.8015771783       16.8061050901
  N        16.5031832992       14.6217186924        5.9864553879
  N         3.4936824716       16.8015497646       16.8015519893
  N        14.3150833339       16.8032458436        5.9905530477
  N        18.6860227675       16.8076409138        5.9848150874
  N         7.8635612283       16.8011868157       16.8011864197
  N        18.6860226110        5.9848171200       16.8076413610
  N         7.8684921750        5.9860605418        5.9860651684
  N         3.4992764820        5.9814206127        5.9814219127
  N        14.3150813657        5.9905546134       16.8032470556
  N        16.4985838458        5.9889625377       18.9938751628
  N        16.5013489921       16.8041988286        8.1717987887
  N        16.4983041554       16.8061070746        3.8015773175
  N        16.5031815789        5.9864559936       14.6217176062
  N         5.6869377595        5.9843976628        3.7980521198
  N         5.6790870160       16.8017884525       14.6169544524
  N         5.6792113394       16.8017855893       18.9884563261
  N         5.6812180105        5.9836111721        8.1691975953
  C        11.0888458626       15.7431875280       15.7431876649
  H        11.0888464455       14.9676487194       14.9676484005
  C        11.0958554897        4.9317695551        4.9317686191
  H        11.0985812992        4.1562241328        4.1562218693
  C         0.2696511824       15.7449832202        4.9267571495
  H         0.2679758409       14.9692534372        4.1513880002
  C         0.2696513354        4.9267569007       15.7449838422
  H         0.2679749724        4.1513892717       14.9692555988
  C        11.0892993753        7.0431489937       15.7414909740
  H        11.0879418176        7.8182919671       14.9655817924
  C        11.0909775725       17.8591738274        4.9278470168
  H        11.0918699959       18.6352722137        4.1528286318
  C         0.2744463176        7.0419656589        4.9254281141
  H         0.2743602718        7.8178055137        4.1501873757
  C         0.2685331765       17.8586641566       15.7423224421
  H         0.2684825005       18.6340042249       14.9665609764
  C        11.0893013361       15.7414903069        7.0431464624
  H        11.0879449841       14.9655793178        7.8182904751
  C        11.0909764187        4.9278472998       17.8591776131
  H        11.0918668676        4.1528309763       18.6352749644
  C         0.2685337566       15.7423216247       17.8586640765
  H         0.2684758095       14.9665603275       18.6340040740
  C         0.2744452270        4.9254230458        7.0419647146
  H         0.2743628296        4.1501794365        7.8178021808
  C        11.0909124572        7.0483802722        7.0483812866
  H        11.0886608736        7.8239224553        7.8239248660
  C        11.0880764095       17.8596314552       17.8596315658
  H        11.0877841054       18.6351916187       18.6351907887
  C         0.2724887559        7.0435338093       17.8610714161
  H         0.2740339976        7.8194187854       18.6362678920
  C         0.2724895821       17.8610686886        7.0435317176
  H         0.2740311643       18.6362663056        7.8194185454
  C        15.4461751021       11.3953970124       15.7410929959
  H        14.6724013881       11.3951348751       14.9636897058
  C        15.4410305749        0.5794461895        4.9317195641
  H        14.6656798990        0.5804222249        4.1559622661
  C         4.6243518809       11.3928461898        4.9219919893
  H         3.8501238379       11.3926288404        4.1450958417
  C         4.6256824323        0.5732669851       15.7396197487
  H         3.8512119935        0.5739351787       14.9629349784
  C        15.4408764473       11.3977563192        7.0410120931
  H        14.6636672799       11.3980137555        7.8147208366
  C        15.4362950064        0.5769936537       17.8621759517
  H        14.6614375341        0.5772270671       18.6384335739
  C         4.6219946287       11.3924623201       17.8614279740
  H         3.8476018715       11.3922938309       18.6381761433
  C         4.6286442648        0.5740757361        7.0440011162
  H         3.8533625842        0.5749499420        7.8198554971
  C         6.7355086702       11.3927883570       15.7405811550
  H         7.5099556728       11.3929620019       14.9638827497
  C         6.7449006393        0.5728777834        4.9261771555
  H         7.5205732408        0.5720707487        4.1507205679
  C        17.5645210438       11.3973198061        4.9303122186
  H        18.3416435436       11.3970263633        4.1563465200
  C        17.5507326409        0.5765638975       15.7427736472
  H        18.3256218297        0.5764450388       14.9664983191
  C         6.7376785968       11.3933874929        7.0431326091
  H         7.5119912455       11.3935258830        7.8199691133
  C         6.7399649390        0.5722769090       17.8594229052
  H         7.5148619050        0.5716830077       18.6356540327
  C        17.5583269386       11.3960085107       17.8633484332
  H        18.3321638090       11.3962005176       18.6406412266
  C        17.5566840567        0.5776252174        7.0498770097
  H        18.3317677074        0.5767817013        7.8259239072
  C        15.4461781173       15.7410925448       11.3953956983
  H        14.6724026376       14.9636893199       11.3951345925
  C        15.4410351575        4.9317169625        0.5794462886
  H        14.6656865866        4.1559592387        0.5804207057
  C         4.6256866728       15.7396156333        0.5732642168
  H         3.8512163579       14.9629291777        0.5739344314
  C         4.6243416895        4.9219988877       11.3928493776
  H         3.8501150875        4.1451026097       11.3926305132
  C         6.7355134515       15.7405860214       11.3927908428
  H         7.5099588412       14.9638842495       11.3929653293
  C         6.7448999427        4.9261731962        0.5728780919
  H         7.5205717305        4.1507173559        0.5720696867
  C        17.5507354486       15.7427773397        0.5765642942
  H        18.3256253823       14.9665013097        0.5764466798
  C        17.5645221694        4.9303143096       11.3973189915
  H        18.3416443271        4.1563498171       11.3970245031
  C        15.4408758189        7.0410152234       11.3977558142
  H        14.6636676782        7.8147230316       11.3980096971
  C        15.4362994110       17.8621788684        0.5769928379
  H        14.6614417092       18.6384379647        0.5772292115
  C         4.6286411641        7.0439976374        0.5740780060
  H         3.8533593577        7.8198502900        0.5749535788
  C         4.6220019032       17.8614329995       11.3924613184
  H         3.8476074492       18.6381808312       11.3922916996
  C         6.7376709562        7.0431393761       11.3933899656
  H         7.5119846178        7.8199731482       11.3935307537
  C         6.7399679875       17.8594170081        0.5722765646
  H         7.5148673810       18.6356474242        0.5716805360
  C        17.5566869022        7.0498784089        0.5776250820
  H        18.3317690087        7.8259254945        0.5767848957
  C        17.5583290392       17.8633462582       11.3960104974
  H        18.3321665301       18.6406402446       11.3961994569
 Xe        16.9224057555       10.3849834299       10.3849803407
