     409
 i =     150, E =    -5183.7509791688
  N         3.0396736875        5.2042258928       16.0213616248
  C         1.7218044607        5.4748610599       16.2900003750
  N        13.8572193400        5.2015659972        5.2015696420
  C        12.5397053635        5.4719902512        5.4719952335
  N        19.7249423544       17.5754566388       16.0195388883
  C        21.0426962078       17.3049329224       16.2889329440
  N         8.9032401176       17.5782020022        5.2041256598
  C        10.2209183968       17.3071421411        5.4728764456
  N        19.7204472679        5.2026922885        6.7586324136
  C        21.0382342799        5.4744475704        6.4904490004
  N         8.9032369900        5.2041237115       17.5782082204
  C        10.2209197098        5.4728805669       17.3071548101
  N         3.0385802404       17.5775637642        6.7604709942
  C         1.7210907097       17.3060963466        6.4908753771
  N        13.8613876775       17.5762193430       17.5762165756
  C        12.5437237976       17.3065096455       17.3065178429
  N        16.0107551976        3.0466673146        5.2014919554
  C        16.2807800466        1.7290483630        5.4716560110
  N        16.0149347738       13.8668725449       16.0196351857
  C        16.2854371913       12.5492958586       16.2887446071
  N        16.0146831161       19.7306325287       17.5754377894
  C        16.2839133777       21.0482748507       17.3047494251
  N        16.0119386093        8.9115467774        6.7583057209
  C        16.2834523598       10.2289549132        6.4894618640
  N         6.7504517669       19.7335187387        5.2048218963
  C         6.4807701089       21.0511853297        5.4754939312
  N         6.7506732379        8.9132581618       16.0218412364
  C         6.4810397523       10.2309108966       16.2918678578
  N         6.7510734899        3.0501469852       17.5780587539
  C         6.4830532422        1.7323174887       17.3066476568
  N         6.7503018574       13.8690812646        6.7597910462
  C         6.4806417946       12.5514946625        6.4894858588
  N         5.1955076949       16.0218512829        3.0496096117
  C         5.4672320451       16.2904925724        1.7319775790
  N         5.1944357777        5.2040460378       13.8692510178
  C         5.4645748881        5.4735982590       12.5516149076
  N        17.5702685007       16.0190096950       19.7306421907
  C        17.2996575598       16.2884702420       21.0483728703
  N        17.5670173997        5.2016826228        8.9108865770
  C        17.2989948395        5.4730320372       10.2285807305
  N         5.1942611318        6.7607772465       19.7333596144
  C         5.4646943515        6.4914714124       21.0510306916
  N         5.1945874943       17.5779280184        8.9137770868
  C         5.4650392738       17.3079217734       10.2311989800
  N        17.5659930470        6.7580056248        3.0470707161
  C        17.2963244803        6.4880921007        1.7292996226
  N        17.5707882908       17.5756149437       13.8666781647
  C        17.3013473403       17.3048286546       12.5491036488
  N         5.1925879789        3.0494509744        6.7605177902
  C         5.4637659625        1.7318335195        6.4914300437
  N         5.1961349090       13.8692766952       17.5782107667
  C         5.4657426049       12.5516747611       17.3080673320
  N        17.5673164948       19.7307751293        6.7578233020
  C        17.2969720256       21.0484357128        6.4879932785
  N        17.5686661698        8.9108327081       17.5761161276
  C        17.3002910856       10.2285134208       17.3050285587
  N         5.1970650154       19.7333506944       16.0216927831
  C         5.4680780292       21.0510719053       16.2904815777
  N         5.1933532536        8.9136256340        5.2041834787
  C         5.4641018857       10.2311045800        5.4736917173
  N        17.5688152085        3.0472184895       16.0187873522
  C        17.2989501141        1.7293794411       16.2883721871
  N        17.5692189633       13.8667407047        5.2021783668
  C        17.3000791184       12.5491487181        5.4732017328
  N         3.0413492891       16.0217460808       17.5779182238
  C         1.7236858207       16.2899896526       17.3060290565
  N        13.8591840651       16.0195212414        6.7573725466
  C        12.5416479953       16.2898385065        6.4875545615
  N        19.7230922519       16.0196963101        5.2026989207
  C        21.0407296040       16.2891232446        5.4739965450
  N         8.9045716204       16.0219525386       16.0219468334
  C        10.2224292064       16.2914128169       16.2914188797
  N        19.7221898997        6.7582585360       17.5759570937
  C        21.0400962773        6.4898032504       17.3053135967
  N         8.9021585442        6.7591150794        6.7591165477
  C        10.2195967764        6.4887412321        6.4887458690
  N         3.0370717099        6.7613399622        5.2050995162
  C         1.7193623589        6.4916913777        5.4756342481
  N        13.8591836283        6.7573697715       16.0195180181
  C        12.5416447643        6.4875611126       16.2898443173
  N        16.0122060783        5.2010266606       19.7305685291
  C        16.2814880784        5.4714599828       21.0482725202
  N        16.0131709076       16.0198303750        8.9114219438
  C        16.2845398751       16.2888043942       10.2288510305
  N        16.0131087224       17.5749654509        3.0465759963
  C        16.2831320991       17.3045490069        1.7290315848
  N        16.0137001501        6.7584281161       13.8668499441
  C        16.2843802323        6.4894908380       12.5493059781
  N         6.7481996451        5.2045234653        3.0500076644
  C         6.4796572577        5.4753856805        1.7321790572
  N         6.7517482903       16.0221665414       13.8692336645
  C         6.4816205504       16.2919780004       12.5515800779
  N         6.7531772943       17.5778904853       19.7336390927
  C         6.4840734621       17.3065864456       21.0512907508
  N         6.7496513809        6.7599757862        8.9133567119
  C         6.4802798227        6.4895487330       10.2309352957
  N        19.7221953151       17.5759574119        6.7582606772
  C        21.0401003000       17.3053108080        6.4898052965
  N         8.9056546600       17.5778220772       17.5778180376
  C        10.2231018312       17.3074000680       17.3074076978
  N         3.0370723420        5.2050959440        6.7613433103
  C         1.7193591188        5.4756297647        6.4916963481
  N        13.8591991331        5.2010487319       17.5756470206
  C        12.5416294984        5.4715177896       17.3058980349
  N         3.0413493502       17.5779188253       16.0217480337
  C         1.7236852701       17.3060297509       16.2899913296
  N        13.8592010517       17.5756501118        5.2010511680
  C        12.5416282157       17.3058925730        5.4715107028
  N        19.7230896350        5.2026970680       16.0196961023
  C        21.0407247633        5.4739942180       16.2891257855
  N         8.9009580682        5.2032973766        5.2033010794
  C        10.2188658036        5.4727675784        5.4727740273
  N         6.7531732690       19.7336404808       17.5778866229
  C         6.4840674214       21.0512904775       17.3065834468
  N         6.7496540749        8.9133578101        6.7599757849
  C         6.4802849704       10.2309389879        6.4895479233
  N         6.7482032903        3.0500048666        5.2045219790
  C         6.4796631693        1.7321743687        5.4753839791
  N         6.7517451455       13.8692371521       16.0221647128
  C         6.4816151465       12.5515867363       16.2919764921
  N        16.0131032047        3.0465763416       17.5749626217
  C        16.2831380683        1.7290282463       17.3045564213
  N        16.0137086776       13.8668500297        6.7584296419
  C        16.2843809852       12.5493112312        6.4894860940
  N        16.0122039031       19.7305701236        5.2010348600
  C        16.2814888055       21.0482704658        5.4714656739
  N        16.0131691152        8.9114202784       16.0198212613
  C        16.2845260198       10.2288547051       16.2888078249
  N        17.5673158576        6.7578154656       19.7307739987
  C        17.2969703150        6.4879880340       21.0484311422
  N        17.5686685901       17.5761270633        8.9108330113
  C        17.3003044743       17.3050261095       10.2285178417
  N         5.1925845762        6.7605195535        3.0494515754
  C         5.4637604876        6.4914318034        1.7318344118
  N         5.1961372525       17.5782126238       13.8692730850
  C         5.4657476068       17.3080688996       12.5516724872
  N        17.5688210755       16.0187912070        3.0472205524
  C        17.2989443384       16.2883654199        1.7293779600
  N        17.5692114918        5.2021772940       13.8667363423
  C        17.3000789923        5.4732067158       12.5491482155
  N         5.1970696334       16.0216967684       19.7333472654
  C         5.4680840528       16.2904842394       21.0510679088
  N         5.1933503896        5.2041836566        8.9136238098
  C         5.4640965546        5.4736931206       10.2311046736
  N        17.5702697976       19.7306456285       16.0190039816
  C        17.2996677571       21.0483741609       16.2884746978
  N        17.5670204905        8.9108852643        5.2016805727
  C        17.2989918211       10.2285823124        5.4730256493
  N         5.1955067956        3.0496104485       16.0218576132
  C         5.4672308551        1.7319840971       16.2904981313
  N         5.1944374723       13.8692524943        5.2040375253
  C         5.4645776579       12.5516134250        5.4735903705
  N        17.5659866161        3.0470696998        6.7580057549
  C        17.2963213458        1.7293025786        6.4880901609
  N        17.5707918926       13.8666804073       17.5756111697
  C        17.3013393982       12.5491024769       17.3048380465
  N         5.1942567561       19.7333541283        6.7607814232
  C         5.4646916173       21.0510353886        6.4914772083
  N         5.1945912621        8.9137827463       17.5779202556
  C         5.4650413323       10.2311970589       17.3079128110
  N        19.7204458573        6.7586357825        5.2026878484
  C        21.0382391521        6.4904526968        5.4744429611
  N         8.9033389323        6.7595300318       16.0219783650
  C        10.2209818327        6.4886527183       16.2909757277
  N         3.0385735646        6.7604700034       17.5775608212
  C         1.7210896370        6.4908708350       17.3060954691
  N        13.8578503387        6.7578475808        6.7578492513
  C        12.5402205386        6.4880511109        6.4880544169
  N         3.0396747992       16.0213640586        5.2042267126
  C         1.7218106093       16.2900014753        5.4748660797
  N        13.8605681678       16.0200596354       16.0200556343
  C        12.5431394374       16.2904757755       16.2904826282
  N        19.7249408991       16.0195374319       17.5754555513
  C        21.0426966435       16.2889311530       17.3049324275
  N         8.9033402155       16.0219722090        6.7595314356
  C        10.2209844130       16.2909629363        6.4886485261
  N         6.7510750563       17.5780523671        3.0501429267
  C         6.4830544021       17.3066419414        1.7323206325
  N         6.7503016221        6.7597983196       13.8690808152
  C         6.4806399285        6.4894931583       12.5514898474
  N         6.7504557211        5.2048168980       19.7335156860
  C         6.4807729749        5.4754873832       21.0511946540
  N         6.7506683200       16.0218488851        8.9132581695
  C         6.4810370322       16.2918770985       10.2309014411
  N        16.0146828377       17.5754438451       19.7306322463
  C        16.2839033342       17.3047451436       21.0482746345
  N        16.0119355866        6.7583075999        8.9115460642
  C        16.2834553787        6.4894678947       10.2289544984
  N        16.0107613081        5.2014919248        3.0466681628
  C        16.2807832097        5.4716578564        1.7290511333
  N        16.0149310636       16.0196383999       13.8668707445
  C        16.2854455809       16.2887346589       12.5492924953
 Zn        14.7211567536       14.7259469177       14.7259464383
 Cl        13.4890653673       13.4936864515       13.4936829642
 Zn        14.7186616729        3.9071406446        3.9071373795
 Cl        13.4839751416        2.6761050771        2.6761122741
 Zn         3.9016324058       14.7283984653        3.9093684628
 Cl         2.6695618548       13.4949682639        2.6781734982
 Zn         3.9016372613        3.9093704237       14.7283994762
 Cl         2.6695596829        2.6781777568       13.4949734152
 Zn         8.0447306165        8.0530729887       14.7276900456
 Cl         9.2767637359        9.2853154759       13.4953560652
 Zn         8.0439172338       18.8724114512        3.9104830683
 Cl         9.2773212971       20.1042002901        2.6789756237
 Zn        18.8597864582        8.0510440110        3.9072511072
 Cl        20.0916383461        9.2845851006        2.6758859363
 Zn        18.8649298467       18.8698175124       14.7260731660
 Cl        20.0964796836       20.1009286447       13.4921261689
 Zn         8.0447189417       14.7276935043        8.0530736669
 Cl         9.2767652450       13.4953623545        9.2853057778
 Zn         8.0439227695        3.9104737679       18.8724158690
 Cl         9.2773242458        2.6789703737       20.1042104454
 Zn        18.8649274124       14.7260739310       18.8698185800
 Cl        20.0964767408       13.4921226225       20.1009264156
 Zn        18.8597782391        3.9072571814        8.0510387667
 Cl        20.0916298458        2.6758948105        9.2845828850
 Zn        14.7189321303        8.0519555761        8.0519517280
 Cl        13.4864268971        9.2840689723        9.2840685710
 Zn        14.7222541080       18.8702474604       18.8702450983
 Cl        13.4886611434       20.1017729348       20.1017759046
 Zn         3.9006809108        8.0535446755       18.8717556160
 Cl         2.6690308292        9.2877364771       20.1026515216
 Zn         3.9006744725       18.8717609895        8.0535492903
 Cl         2.6690289500       20.1026581458        9.2877431618
 Zn        14.7200559535       14.7258491172        8.0518586743
 Cl        13.4877570491       13.4936178853        9.2839968143
 Zn        14.7203723713        3.9063931961       18.8694855467
 Cl        13.4862320135        2.6747122766       20.1003509828
 Zn         3.9027834152       14.7284326889       18.8722610131
 Cl         2.6710486223       13.4950600946       20.1038258529
 Zn         3.8996819647        3.9100724482        8.0535764947
 Cl         2.6677448675        2.6796170024        9.2879783756
 Zn         8.0442014439        8.0530530588        8.0530534630
 Cl         9.2764972966        9.2852084504        9.2852072966
 Zn         8.0467585220       18.8719295584       18.8719269822
 Cl         9.2807270670       20.1032471167       20.1032503706
 Zn        18.8615535503        8.0509700668       18.8706553605
 Cl        20.0932014228        9.2843656529       20.1023372546
 Zn        18.8615644735       18.8706595251        8.0509707144
 Cl        20.0931991014       20.1023456955        9.2843736244
 Zn        14.7200497610        8.0518618721       14.7258456258
 Cl        13.4877487785        9.2840007716       13.4936175732
 Zn        14.7203760966       18.8694839279        3.9063940698
 Cl        13.4862277423       20.1003450375        2.6747171404
 Zn         3.8996805542        8.0535770404        3.9100754823
 Cl         2.6677511019        9.2879749709        2.6796076331
 Zn         3.9027808825       18.8722598925       14.7284309305
 Cl         2.6710475540       20.1038323023       13.4950645424
 Zn         8.0456465914       14.7278789926       14.7278778440
 Cl         9.2777099471       13.4956129287       13.4956044451
 Zn         8.0404038173        3.9094944642        3.9094954170
 Cl         9.2733406261        2.6775544062        2.6775666052
 Zn        18.8633629172       14.7261057582        3.9080809342
 Cl        20.0950031002       13.4920255933        2.6771929675
 Zn        18.8633567146        3.9080825492       14.7261033141
 Cl        20.0949959115        2.6771928240       13.4920241931
 Zn         5.9673446340        5.9854540391       16.8035332558
 Zn        16.7887883956       16.7985928039       16.7985764672
 Zn        16.7838821774        5.9802210040        5.9802299755
 Zn         5.9673506202       16.8035324969        5.9854403789
 Zn         5.9651855219        5.9854145412        5.9854132779
 Zn        16.7860715785       16.7984966835        5.9800935345
 Zn         5.9702520160       16.8038640732       16.8038496966
 Zn        16.7860692041        5.9800734174       16.7984769247
  N         3.7854571728        5.9820774628       16.8002250656
  N        14.6037734063        5.9795584246        5.9795570518
  N        18.9782565025       16.7978273059       16.7978263587
  N         8.1565773282       16.8006601482        5.9824520905
  N        18.9737803613        5.9797422217        5.9797337274
  N         8.1565750658        5.9824479068       16.8006648039
  N         3.7854621840       16.8002323134        5.9820778881
  N        14.6073380135       16.7979745186       16.7979688526
  N        16.7883334475        3.7934722073        5.9795930340
  N        16.7925820502       14.6133197770       16.7979995193
  N        16.7928694432       18.9841066569       16.7976384107
  N        16.7886291172        8.1646823959        5.9794389462
  N         5.9720400267       18.9870042886        5.9824586935
  N         5.9723443099        8.1671367142       16.7998714680
  N         5.9721974667        3.7965745805       16.8007978160
  N         5.9721279824       14.6158317287        5.9821990784
  N         5.9721958713       16.8007859954        3.7965714304
  N         5.9721277244        5.9822107040       14.6158303799
  N        16.7928721928       16.7976469887       18.9841044884
  N        16.7886255255        5.9794406787        8.1646828705
  N         5.9720507065        5.9824497298       18.9870067700
  N         5.9723357050       16.7998826346        8.1671315432
  N        16.7883408009        5.9795950985        3.7934734605
  N        16.7925715876       16.7980059761       14.6133173239
  N         5.9696464275        3.7964415997        5.9820254032
  N         5.9740237460       14.6159243089       16.8002960230
  N        16.7900826513       18.9841250072        5.9792048393
  N        16.7901733627        8.1645930108       16.7984594620
  N         5.9744586976       18.9870942732       16.8005391457
  N         5.9709870608        8.1671064919        5.9824397642
  N        16.7909614969        3.7934817823       16.7972043857
  N        16.7910571572       14.6133403678        5.9798529567
  N         3.7877322216       16.8008739341       16.8008728282
  N        14.6054819179       16.7974811110        5.9790844658
  N        18.9759543479       16.7981646344        5.9797485075
  N         8.1584590922       16.8001267311       16.8001164077
  N        18.9759505861        5.9797469821       16.7981619380
  N         8.1548314118        5.9814801567        5.9814798683
  N         3.7833812833        5.9830295462        5.9830354157
  N        14.6054812580        5.9790836545       16.7974742490
  N        16.7900797707        5.9791943817       18.9841226615
  N        16.7901731143       16.7984779314        8.1645951386
  N        16.7909719721       16.7972092874        3.7934845246
  N        16.7910485305        5.9798519303       14.6133363594
  N         5.9696431880        5.9820288176        3.7964441171
  N         5.9740274629       16.8002950717       14.6159189213
  N         5.9744643256       16.8005444443       18.9870914239
  N         5.9709827931        5.9824380247        8.1671044983
  C        11.3823255393       15.7405077689       15.7405142247
  H        11.3817001661       14.9649412353       14.9649405529
  C        11.3789002068        4.9219920878        4.9219994364
  H        11.3784370409        4.1464417098        4.1464483787
  C         0.5616559818       15.7388089104        4.9245276425
  H         0.5623760885       14.9629995942        4.1492193258
  C         0.5616497747        4.9245232317       15.7388102455
  H         0.5623603529        4.1492159933       14.9630000758
  C        11.3812766901        7.0383891993       15.7398296323
  H        11.3813097883        7.8139127713       14.9642172017
  C        11.3812232381       17.8568837062        4.9217581882
  H        11.3812332920       18.6325541317        4.1463255044
  C         0.5587705708        7.0417764895        4.9251321143
  H         0.5588261046        7.8174830213        4.1497337276
  C         0.5631734672       17.8554361547       15.7387364121
  H         0.5632342364       18.6309034607       14.9630910950
  C        11.3812818833       15.7398200217        7.0383834907
  H        11.3813237651       14.9642115694        7.8139108962
  C        11.3812251560        4.9217640287       17.8568933719
  H        11.3812462424        4.1463275863       18.6325602850
  C         0.5631736037       15.7387328307       17.8554340748
  H         0.5632353556       14.9630854695       18.6308991597
  C         0.5587636686        4.9251329696        7.0417776765
  H         0.5587991086        4.1497353121        7.8174852167
  C        11.3802043408        7.0388189559        7.0388221947
  H        11.3807333100        7.8143885069        7.8143877880
  C        11.3838001251       17.8573602704       17.8573706473
  H        11.3844710136       18.6329116922       18.6329186971
  C         0.5601496522        7.0409562697       17.8557400681
  H         0.5595378139        7.8165774152       18.6312204265
  C         0.5601512856       17.8557390028        7.0409606341
  H         0.5595291043       18.6312204231        7.8165809434
  C        15.7347676542       11.3892760639       15.7380275071
  H        14.9590772251       11.3895821723       14.9625824450
  C        15.7307576699        0.5685425129        4.9211510031
  H        14.9551485885        0.5683774518        4.1456473753
  C         4.9138787691       11.3914688680        4.9231976160
  H         4.1380800071       11.3915238937        4.1478807828
  C         4.9177806689        0.5713489824       15.7396558160
  H         4.1423651554        0.5710495111       14.9639520390
  C        15.7337976968       11.3893443913        7.0403517196
  H        14.9580669007       11.3896853845        7.8157546081
  C        15.7329905210        0.5685186739       17.8548699829
  H        14.9572531536        0.5683303644       18.6302451955
  C         4.9149802177       11.3915876427       17.8584532624
  H         4.1394615930       11.3917129450       18.6340388070
  C         4.9141519742        0.5712487281        7.0421300256
  H         4.1387613417        0.5709273593        7.8178469516
  C         7.0317542893       11.3911655057       15.7414317286
  H         7.8072863779       11.3909537760       14.9658219284
  C         7.0308871029        0.5719218041        4.9253728135
  H         7.8066052022        0.5723197206        4.1499665961
  C        17.8499917702       11.3886624450        4.9226418631
  H        18.6248823359       11.3883174144        4.1464220530
  C        17.8492780338        0.5690219462       15.7376568989
  H        18.6243304722        0.5692872171       14.9615907044
  C         7.0310976857       11.3911679162        7.0398221645
  H         7.8066862888       11.3910299654        7.8153673672
  C         7.0342772152        0.5720345379       17.8565825651
  H         7.8098519575        0.5724090661       18.6321167148
  C        17.8513499809       11.3886185139       17.8552968619
  H        18.6265309307       11.3882942916       18.6312254430
  C        17.8465559893        0.5690019719        7.0389103931
  H        18.6214368746        0.5692478416        7.8151512492
  C        15.7347810154       15.7380182501       11.3892705953
  H        14.9590857564       14.9625778707       11.3895658579
  C        15.7307589662        4.9211494646        0.5685471729
  H        14.9551503085        4.1456452547        0.5683918533
  C         4.9177836111       15.7396544701        0.5713413183
  H         4.1423676580       14.9639514064        0.5710291592
  C         4.9138753857        4.9232017360       11.3914712389
  H         4.1380779158        4.1478832530       11.3915343387
  C         7.0317547265       15.7414369175       11.3911560875
  H         7.8072847764       14.9658247798       11.3909257730
  C         7.0308859413        4.9253694968        0.5719301288
  H         7.8066046397        4.1499641587        0.5723477085
  C        17.8492696577       15.7376510961        0.5690187628
  H        18.6243285563       14.9615913637        0.5692795060
  C        17.8499935238        4.9226477933       11.3886624532
  H        18.6248819047        4.1464254401       11.3883188773
  C        15.7337977562        7.0403580050       11.3893422802
  H        14.9580642908        7.8157578854       11.3896794077
  C        15.7329825205       17.8548626793        0.5685210523
  H        14.9572507930       18.6302435164        0.5683394538
  C         4.9141514472        7.0421270254        0.5712436570
  H         4.1387615523        7.8178447382        0.5709051292
  C         4.9149803105       17.8584585331       11.3915903454
  H         4.1394591746       18.6340414737       11.3917301208
  C         7.0310955970        7.0398249442       11.3911626800
  H         7.8066867809        7.8153672879       11.3910149895
  C         7.0342798431       17.8565812770        0.5720378178
  H         7.8098539267       18.6321161726        0.5724263684
  C        17.8465558129        7.0389088338        0.5689970820
  H        18.6214364926        7.8151497289        0.5692317762
  C        17.8513624143       17.8552902928       11.3886228226
  H        18.6265367737       18.6312252616       11.3883111097
 Xe         0.3533143840       10.7137961315       10.7137959047
