     409
 i =     150, E =    -5183.7533105158
  N         2.7128649761        5.2058127663       16.0236103018
  C         1.3950440975        5.4764496428       16.2927942254
  N        13.5321242933        5.2058796556        5.2058731826
  C        12.2145377323        5.4759535695        5.4759594693
  N        19.3982371720       17.5784337962       16.0225051815
  C        20.7160024444       17.3074330339       16.2914293743
  N         8.5771910113       17.5799289653        5.2074523129
  C         9.8948532265       17.3082629434        5.4756547310
  N        19.3947414024        5.2040146335        6.7599519647
  C        20.7124755756        5.4752083147        6.4912149995
  N         8.5771863902        5.2074543622       17.5799323182
  C         9.8948544253        5.4756538512       17.3082663159
  N         2.7122902011       17.5796701862        6.7621678454
  C         1.3947312582       17.3088203892        6.4925583699
  N        13.5350111608       17.5786353367       17.5786358471
  C        12.2173874290       17.3088222483       17.3088222355
  N        15.6842577736        3.0504033054        5.2050688081
  C        15.9539463060        1.7326570230        5.4747896384
  N        15.6894616965       13.8698138185       16.0214007946
  C        15.9602218145       12.5521989981       16.2900723314
  N        15.6883037777       19.7339517837       17.5780174804
  C        15.9571492826       21.0514953359       17.3065662826
  N        15.6903930567        8.9147041934        6.7646039611
  C        15.9632142463       10.2319599499        6.4971756324
  N         6.4242020847       19.7356532563        5.2081440961
  C         6.1544550920       21.0534161829        5.4783178964
  N         6.4237452299        8.9158011405       16.0236993652
  C         6.1542778344       10.2334718876       16.2939864611
  N         6.4257048983        3.0527751334       17.5809762833
  C         6.1578257095        1.7348906934       17.3094436188
  N         6.4232410002       13.8713500473        6.7614346172
  C         6.1540480588       12.5538109263        6.4907174579
  N         4.8698503156       16.0251485838        3.0522384214
  C         5.1418124896       16.2934766102        1.7346031215
  N         4.8679669104        5.2052437441       13.8715864937
  C         5.1383408363        5.4744901901       12.5538747028
  N        17.2432851455       16.0208611792       19.7335885657
  C        16.9724725899       16.2898324898       21.0513873027
  N        17.2451270869        5.2075633868        8.9140094121
  C        16.9782923803        5.4802436138       10.2316088434
  N         4.8673898921        6.7634046070       19.7359560836
  C         5.1379323976        6.4938591999       21.0535126823
  N         4.8679849612       17.5801145937        8.9162801604
  C         5.1384575909       17.3102354850       10.2337193777
  N        17.2387718795        6.7620045877        3.0501415844
  C        16.9691523857        6.4915402042        1.7323468920
  N        17.2449337147       17.5774615838       13.8695517240
  C        16.9758881353       17.3063667862       12.5520169601
  N         4.8663516547        3.0518679318        6.7621798027
  C         5.1373624076        1.7342265588        6.4932742059
  N         4.8696592066       13.8718135604       17.5808870131
  C         5.1391772685       12.5541859908       17.3106727425
  N        17.2395130292       19.7338800433        6.7603973796
  C        16.9694048776       21.0515252044        6.4906253898
  N        17.2425525214        8.9139273301       17.5784278221
  C        16.9747251127       10.2315731870       17.3068031294
  N         4.8710270382       19.7360574122       16.0244303679
  C         5.1424296576       21.0537191043       16.2931094379
  N         4.8673600058        8.9158035370        5.2054432291
  C         5.1381730302       10.2333207450        5.4746718504
  N        17.2419568962        3.0503451299       16.0197046412
  C        16.9718872135        1.7324757082       16.2892063436
  N        17.2461818077       13.8696549763        5.2080690151
  C        16.9787142240       12.5520135412        5.4803651976
  N         2.7146923748       16.0241210963       17.5802869543
  C         1.3970117757       16.2921858543       17.3082403296
  N        13.5332497804       16.0200444633        6.7594548894
  C        12.2156602824       16.2902335405        6.4895403058
  N        19.3962479042       16.0238845779        5.2050306273
  C        20.7139541442       16.2930163163        5.4760641944
  N         8.5782252604       16.0240795922       16.0240802390
  C         9.8961259375       16.2935243589       16.2935243721
  N        19.3959503788        6.7608173167       17.5799272213
  C        20.7137783854        6.4919914478       17.3091020854
  N         8.5760436368        6.7616951462        6.7616883901
  C         9.8935950242        6.4917229164        6.4917270404
  N         2.7111818059        6.7630349083        5.2068464175
  C         1.3935006055        6.4926760194        5.4766277745
  N        13.5332452275        6.7594575446       16.0200467230
  C        12.2156505856        6.4895419395       16.2902336844
  N        15.6848662679        5.2030934642       19.7339944656
  C        15.9542034542        5.4737688124       21.0517524805
  N        15.6871705998       16.0219689903        8.9144830829
  C        15.9591396284       16.2903766044       10.2318290121
  N        15.6871842858       17.5766338967        3.0498467296
  C        15.9566066021       17.3058975026        1.7322293852
  N        15.6915440732        6.7648134328       13.8694239659
  C        15.9636368340        6.4971948567       12.5520155195
  N         6.4225138298        5.2068618101        3.0522243872
  C         6.1536727717        5.4776561828        1.7343980570
  N         6.4249502610       16.0246821477       13.8718699538
  C         6.1548847229       16.2944263778       12.5541946900
  N         6.4274299041       17.5803747811       19.7361250897
  C         6.1586037942       17.3090629379       21.0538328296
  N         6.4231112277        6.7617542514        8.9157451701
  C         6.1540126799        6.4908833683       10.2333094880
  N        19.3959508649       17.5799270808        6.7608155922
  C        20.7137795701       17.3091006379        6.4919920459
  N         8.5793770824       17.5798975087       17.5798972360
  C         9.8968233249       17.3095130862       17.3095126588
  N         2.7111813317        5.2068393717        6.7630366378
  C         1.3934846101        5.4766184153        6.4926822253
  N        13.5331709355        5.2038455030       17.5770156734
  C        12.2155960572        5.4739578113       17.3067672557
  N         2.7146923193       17.5802880705       16.0241223265
  C         1.3970136201       17.3082412471       16.2921863541
  N        13.5331745341       17.5770134987        5.2038426682
  C        12.2155933491       17.3067678375        5.4739549827
  N        19.3962489158        5.2050315223       16.0238853711
  C        20.7139552128        5.4760641279       16.2930187081
  N         8.5756604701        5.2058925424        5.2058849988
  C         9.8935739812        5.4757319491        5.4757364359
  N         6.4274303682       19.7361271503       17.5803746565
  C         6.1586035526       21.0538356614       17.3090627038
  N         6.4231133705        8.9157440803        6.7617552922
  C         6.1540133507       10.2333037855        6.4908830625
  N         6.4225130350        3.0522246171        5.2068583165
  C         6.1536733264        1.7343957046        5.4776544261
  N         6.4249511435       13.8718680475       16.0246831517
  C         6.1548856919       12.5541934848       16.2944278086
  N        15.6871828732        3.0498463557       17.5766322797
  C        15.9566044350        1.7322329464       17.3058930433
  N        15.6915417004       13.8694187942        6.7648107891
  C        15.9636373967       12.5520031936        6.4971985990
  N        15.6848708264       19.7339867866        5.2030941391
  C        15.9542028203       21.0517412948        5.4737741324
  N        15.6871666850        8.9144865106       16.0219696544
  C        15.9591373223       10.2318328060       16.2903778026
  N        17.2395066702        6.7603975939       19.7338884051
  C        16.9693992046        6.4906158031       21.0515221819
  N        17.2425570186       17.5784274400        8.9139263530
  C        16.9747280497       17.3068027057       10.2315745425
  N         4.8663507155        6.7621816415        3.0518678226
  C         5.1373605565        6.4932754771        1.7342233759
  N         4.8696591787       17.5808867221       13.8718144392
  C         5.1391779106       17.3106707071       12.5541896637
  N        17.2419577807       16.0197055343        3.0503468550
  C        16.9718912695       16.2892089134        1.7324791241
  N        17.2461844603        5.2080717104       13.8696625964
  C        16.9787173490        5.4803574458       12.5520082061
  N         4.8710268872       16.0244296772       19.7360557747
  C         5.1424301114       16.2931094709       21.0537178058
  N         4.8673573134        5.2054423814        8.9158056389
  C         5.1381720272        5.4746724980       10.2333194071
  N        17.2432844411       19.7335874084       16.0208597763
  C        16.9724688861       21.0513819195       16.2898304186
  N        17.2451251528        8.9140075287        5.2075572696
  C        16.9782950580       10.2316186604        5.4802441052
  N         4.8698495651        3.0522405521       16.0251489597
  C         5.1418113369        1.7346050287       16.2934765648
  N         4.8679693573       13.8715830525        5.2052420044
  C         5.1383444917       12.5538753368        5.4744915430
  N        17.2387752204        3.0501374614        6.7619989315
  C        16.9691515577        1.7323522898        6.4915434597
  N        17.2449316023       13.8695525311       17.5774642170
  C        16.9758871635       12.5520157719       17.3063683648
  N         4.8673895941       19.7359555939        6.7634028868
  C         5.1379335278       21.0535134196        6.4938583626
  N         4.8679826702        8.9162795044       17.5801154552
  C         5.1384564284       10.2337188344       17.3102368294
  N        19.3947446151        6.7599562115        5.2040131811
  C        20.7125004259        6.4912183559        5.4752070879
  N         8.5771204720        6.7622280799       16.0231715495
  C         9.8948299482        6.4910136337       16.2916919540
  N         2.7122906279        6.7621677684       17.5796714711
  C         1.3947302219        6.4925581534       17.3088230635
  N        13.5320075741        6.7621442893        6.7621343304
  C        12.2143096041        6.4920364116        6.4920402342
  N         2.7128648400       16.0236101891        5.2058118338
  C         1.3950433911       16.2927929903        5.4764501360
  N        13.5345026796       16.0224242361       16.0224234661
  C        12.2169769883       16.2927646507       16.2927641549
  N        19.3982367315       16.0225042118       17.5784335722
  C        20.7160020202       16.2914291352       17.3074322065
  N         8.5771244566       16.0231684301        6.7622263662
  C         9.8948387488       16.2916898152        6.4910140237
  N         6.4257063154       17.5809753253        3.0527724629
  C         6.1578262240       17.3094425177        1.7348896090
  N         6.4232387210        6.7614355255       13.8713525819
  C         6.1540463467        6.4907172013       12.5538151143
  N         6.4242022287        5.2081452660       19.7356543650
  C         6.1544543154        5.4783186178       21.0534192048
  N         6.4237475711       16.0236980377        8.9158027288
  C         6.1542772835       16.2939862643       10.2334716312
  N        15.6883042045       17.5780180144       19.7339539809
  C        15.9571525798       17.3065680184       21.0514942947
  N        15.6903981491        6.7646075354        8.9147067514
  C        15.9632108731        6.4971764005       10.2319761614
  N        15.6842558834        5.2050655575        3.0504102037
  C        15.9539511685        5.4747846103        1.7326760389
  N        15.6894633534       16.0213983002       13.8698130078
  C        15.9602224093       16.2900703576       12.5521952663
 Zn        14.3954537320       14.7281352092       14.7281359683
 Cl        13.1638239713       13.4956201398       13.4956199226
 Zn        14.3928989406        3.9110871410        3.9111065714
 Cl        13.1570246744        2.6805383747        2.6805427649
 Zn         3.5757305698       14.7313879246        3.9106973728
 Cl         2.3453883828       13.4985973914        2.6770714367
 Zn         3.5757293391        3.9106973570       14.7313870020
 Cl         2.3453878651        2.6770713989       13.4985955475
 Zn         7.7170920503        8.0550356940       14.7291505178
 Cl         8.9485624451        9.2873362123       13.4961652535
 Zn         7.7181804532       18.8744646170        3.9147213731
 Cl         8.9517477837       20.1082747628        2.6852438086
 Zn        18.5339425355        8.0532953881        3.9097637333
 Cl        19.7659309874        9.2865352970        2.6781958664
 Zn        18.5380744054       18.8720974834       14.7283582276
 Cl        19.7694651605       20.1033568993       13.4943455138
 Zn         7.7170935139       14.7291494327        8.0550342760
 Cl         8.9485663119       13.4961640433        9.2873323180
 Zn         7.7181784353        3.9147194278       18.8744659706
 Cl         8.9517496930        2.6852438631       20.1082745141
 Zn        18.5380713729       14.7283599416       18.8720983391
 Cl        19.7694653713       13.4943481287       20.1033551988
 Zn        18.5339344467        3.9097584610        8.0532980126
 Cl        19.7659343436        2.6781946207        9.2865358396
 Zn        14.3947704412        8.0554309617        8.0554387540
 Cl        13.1667912403        9.2898040108        9.2898105642
 Zn        14.3962069998       18.8726087343       18.8726105634
 Cl        13.1624079432       20.1040700532       20.1040695051
 Zn         3.5742533591        8.0554387997       18.8734543614
 Cl         2.3404321359        9.2895728622       20.1024029802
 Zn         3.5742541132       18.8734524777        8.0554391934
 Cl         2.3404345254       20.1024015107        9.2895748889
 Zn        14.3947919858       14.7272112848        8.0545427928
 Cl        13.1642119807       13.4944257241        9.2878741809
 Zn        14.3942714024        3.9086544793       18.8709795562
 Cl        13.1594179864        2.6752639546       20.0994905231
 Zn         3.5767107050       14.7312758554       18.8745502192
 Cl         2.3447738266       13.4983638810       20.1064831954
 Zn         3.5737435639        3.9120075892        8.0551049278
 Cl         2.3417146371        2.6811576149        9.2891506604
 Zn         7.7168534459        8.0550134275        8.0550164295
 Cl         8.9492136651        9.2872406423        9.2872432727
 Zn         7.7210131417       18.8738394629       18.8738381094
 Cl         8.9550300908       20.1051877933       20.1051889540
 Zn        18.5335568619        8.0532625024       18.8736366148
 Cl        19.7634069684        9.2865947068       20.1073405763
 Zn        18.5335720873       18.8736341327        8.0532667744
 Cl        19.7634133428       20.1073480852        9.2865979869
 Zn        14.3947879461        8.0545438381       14.7272143699
 Cl        13.1642079820        9.2878744601       13.4944289637
 Zn        14.3942709031       18.8709800144        3.9086529844
 Cl        13.1594169873       20.0994902698        2.6752633129
 Zn         3.5737417026        8.0551019854        3.9120179769
 Cl         2.3417191980        9.2891485226        2.6811638825
 Zn         3.5767110607       18.8745520244       14.7312771592
 Cl         2.3447757906       20.1064849005       13.4983629005
 Zn         7.7185393302       14.7302162069       14.7302155950
 Cl         8.9500297967       13.4976236517       13.4976229653
 Zn         7.7146671761        3.9121697430        3.9121656997
 Cl         8.9476863367        2.6802523941        2.6802511960
 Zn        18.5373213263       14.7284695832        3.9116723409
 Cl        19.7708572052       13.4945305423        2.6824691282
 Zn        18.5373252605        3.9116705171       14.7284767269
 Cl        19.7708537243        2.6824707901       13.4945276401
 Zn         5.6406431305        5.9887365500       16.8068541859
 Zn        16.4620428403       16.8039531799       16.8039467305
 Zn        16.4589956975        5.9868722853        5.9868169100
 Zn         5.6406458630       16.8068541096        5.9887334601
 Zn         5.6392577005        5.9883112794        5.9883020037
 Zn        16.4598251506       16.8035680038        5.9855559499
 Zn         5.6431815756       16.8076486785       16.8076516707
 Zn        16.4598254985        5.9855686598       16.8035499791
  N         3.4589027367        5.9837112300       16.8022446961
  N        14.2783172448        5.9839742200        5.9839568913
  N        18.6515671011       16.8011705519       16.8011698082
  N         7.8304191742       16.8024687220        5.9856873535
  N        18.6481235937        5.9814080176        5.9814093639
  N         7.8304150125        5.9856907718       16.8024713373
  N         3.4589029626       16.8022451152        5.9837104175
  N        14.2810651652       16.8004554266       16.8004552062
  N        16.4614602692        3.7969991273        5.9836810223
  N        16.4665913424       14.6163647652       16.8001772509
  N        16.4663592034       18.9873324078       16.8002188559
  N        16.4659490603        8.1679601055        5.9846435351
  N         5.6454207564       18.9893962598        5.9855457254
  N         5.6454910017        8.1697057751       16.8018159552
  N         5.6464831550        3.7992083254       16.8040688959
  N         5.6452067721       14.6181864754        5.9838450430
  N         5.6464842473       16.8040693686        3.7992061570
  N         5.6452049783        5.9838470090       14.6181889858
  N        16.4663575618       16.8002192231       18.9873344698
  N        16.4659595877        5.9846501014        8.1679620313
  N         5.6454212257        5.9855478807       18.9893981232
  N         5.6454938246       16.8018157827        8.1697054788
  N        16.4614516140        5.9836840238        3.7970047158
  N        16.4665941365       16.8001749289       14.6163634552
  N         5.6437182471        3.7987713479        5.9840013308
  N         5.6473924264       14.6185660969       16.8029438129
  N        16.4623877481       18.9874470089        5.9815656704
  N        16.4636307427        8.1677733838       16.8011613676
  N         5.6482912536       18.9897463489       16.8033466467
  N         5.6446061708        8.1694190797        5.9841747942
  N        16.4647700815        3.7967820099       16.7986681522
  N        16.4673998026       14.6162231563        5.9851111170
  N         3.4610470869       16.8034945718       16.8034938483
  N        14.2794697323       16.7986903416        5.9817129121
  N        18.6494348828       16.8023747330        5.9823053702
  N         7.8321077996       16.8022829009       16.8022825202
  N        18.6494350825        5.9823087043       16.8023737520
  N         7.8291444677        5.9838887738        5.9838755272
  N         3.4574984560        5.9851120576        5.9851158952
  N        14.2794661055        5.9817170073       16.7986939191
  N        16.4623803344        5.9815686931       18.9874557723
  N        16.4636342714       16.8011620627        8.1677714524
  N        16.4647694230       16.7986669819        3.7967816485
  N        16.4674053464        5.9851193974       14.6162321472
  N         5.6437185781        5.9840044743        3.7987704883
  N         5.6473920664       16.8029445486       14.6185678136
  N         5.6482903146       16.8033474764       18.9897440520
  N         5.6446038972        5.9841732887        8.1694209067
  C        11.0561631721       15.7427393191       15.7427387152
  H        11.0556442300       14.9671681243       14.9671670288
  C        11.0539305426        4.9254931975        4.9254970664
  H        11.0543033328        4.1499283626        4.1499159595
  C         0.2345506350       15.7422155718        4.9262925399
  H         0.2345436792       14.9663677036        4.1509996282
  C         0.2345501464        4.9262928788       15.7422163798
  H         0.2345428094        4.1510030482       14.9663654088
  C        11.0551958647        7.0402212054       15.7400940813
  H        11.0551834166        7.8155062738       14.9642622026
  C        11.0551682493       17.8580229088        4.9245184105
  H        11.0550904255       18.6340562852        4.1494401776
  C         0.2329253137        7.0425207810        4.9258160387
  H         0.2329041782        7.8183080197        4.1504986121
  C         0.2364710450       17.8576608463       15.7409701474
  H         0.2365019380       18.6330548452       14.9652412042
  C        11.0551947631       15.7400923245        7.0402210470
  H        11.0551864691       14.9642586638        7.8155033100
  C        11.0551584704        4.9245197518       17.8580255720
  H        11.0550907317        4.1494456451       18.6340619419
  C         0.2364721047       15.7409690863       17.8576593000
  H         0.2365022013       14.9652395868       18.6330522249
  C         0.2329448039        4.9258099760        7.0425215323
  H         0.2329050536        4.1504908969        7.8183068873
  C        11.0539813872        7.0422517501        7.0422532630
  H        11.0535046301        7.8178273788        7.8178131437
  C        11.0573958105       17.8595625823       17.8595619819
  H        11.0578508733       18.6351283258       18.6351273675
  C         0.2341150915        7.0429070015       17.8589647884
  H         0.2341022352        7.8186583645       18.6343303629
  C         0.2341142433       17.8589632284        7.0429072588
  H         0.2341073408       18.6343306214        7.8186567816
  C        15.4097946426       11.3922587849       15.7390687348
  H        14.6344112140       11.3924180926       14.9633082926
  C        15.4039470626        0.5722266609        4.9236621207
  H        14.6286007447        0.5725886972        4.1478813001
  C         4.5880466356       11.3936679610        4.9238732531
  H         3.8124737015       11.3935479158        4.1483299981
  C         4.5922242630        0.5741249320       15.7424987058
  H         3.8166919578        0.5740650948       14.9668898647
  C        15.4141364589       11.3920164555        7.0490657592
  H        14.6388877250       11.3920100749        7.8249405924
  C        15.4065481896        0.5719323765       17.8566438367
  H        14.6312156370        0.5719892471       18.6324337113
  C         4.5884848306       11.3940595720       17.8609924580
  H         3.8129778870       11.3940824790       18.6366116324
  C         4.5872661709        0.5739008007        7.0439902265
  H         3.8115279397        0.5739361627        7.8193740584
  C         6.7048948467       11.3938087694       15.7436369776
  H         7.4802498339       11.3937582464       14.9678413261
  C         6.7049612526        0.5739467006        4.9281234347
  H         7.4810640952        0.5739774753        4.1531050687
  C        17.5290616786       11.3917709439        4.9298185889
  H        18.3034656656       11.3916361485        4.1531240770
  C        17.5218479510        0.5719219818       15.7384696826
  H        18.2967336475        0.5718756136       14.9622368719
  C         6.7045452072       11.3935516887        7.0412380756
  H         7.4798067096       11.3936293873        7.8171161899
  C         6.7090521383        0.5744785320       17.8590857311
  H         7.4847003618        0.5745902708       18.6345586830
  C        17.5259168718       11.3915983991       17.8569379256
  H        18.3009793765       11.3913440609       18.6329937896
  C        17.5190933092        0.5719412897        7.0419947769
  H        18.2938926409        0.5715811915        7.8183411223
  C        15.4097964716       15.7390677828       11.3922601704
  H        14.6344133974       14.9633063775       11.3924225615
  C        15.4039455355        4.9236519197        0.5722272680
  H        14.6285969676        4.1478795224        0.5726002264
  C         4.5922246042       15.7424986665        0.5741223069
  H         3.8166922987       14.9668902912        0.5740617243
  C         4.5880439144        4.9238741968       11.3936744385
  H         3.8124683090        4.1483335186       11.3935488102
  C         6.7048950351       15.7436345019       11.3938111775
  H         7.4802488312       14.9678398247       11.3937575953
  C         6.7049621448        4.9281250555        0.5739445112
  H         7.4810677272        4.1531100876        0.5739750221
  C        17.5218514927       15.7384733379        0.5719200418
  H        18.2967371657       14.9622390409        0.5718753011
  C        17.5290595768        4.9298190731       11.3917910038
  H        18.3034739249        4.1531300690       11.3916432945
  C        15.4141403389        7.0490612413       11.3920124453
  H        14.6388969944        7.8249462995       11.3920212338
  C        15.4065517995       17.8566461028        0.5719380713
  H        14.6312170219       18.6324349967        0.5719903638
  C         4.5872655687        7.0439909218        0.5739052560
  H         3.8115287942        7.8193772359        0.5739457674
  C         4.5884846199       17.8609920450       11.3940596327
  H         3.8129788429       18.6366106940       11.3940865474
  C         6.7045424403        7.0412368902       11.3935518791
  H         7.4798036040        7.8171173064       11.3936371429
  C         6.7090529109       17.8590859531        0.5744762534
  H         7.4847007665       18.6345587213        0.5745905971
  C        17.5190932541        7.0419932774        0.5719615093
  H        18.2938835163        7.8183435844        0.5715923765
  C        17.5259176721       17.8569365370       11.3915957594
  H        18.3009806130       18.6329925861       11.3913465449
 Xe        18.8947646545       10.4972508625       10.4972507748
