     409
 i =     407, E =     -953.2690999777
  N         2.8417176356        5.2247403441       16.0323664668
  C         1.5423133251        5.4947205755       16.3023884033
  N        13.6354916551        5.2110054318        5.2110080818
  C        12.3360869841        5.4810121519        5.4810012789
  N        19.5463677697       17.5511086112       16.0111354762
  C        20.8464492092       17.2811315259       16.2778558313
  N         8.7251597609       17.5648585774        5.2172607324
  C        10.0252476921       17.2948592956        5.4839528342
  N        19.5188840402        5.2035279457        6.7435014340
  C        20.8189658036        5.4702137585        6.4734895682
  N         8.7251585457        5.2172609243       17.5648585638
  C        10.0252464817        5.4839539509       17.2948602939
  N         2.8456359521       17.5723325549        6.7647179214
  C         1.5448668266       17.3056657259        6.4979952234
  N        13.6668885974       17.5585909647       17.5585861469
  C        12.3661194265       17.2918902128       17.2919002088
  N        15.8035300355        3.0375388890        5.2082496017
  C        16.0705827088        1.7371097279        5.4762412471
  N        15.8310122882       13.8450537658       16.0158582129
  C        16.0980505432       12.5446241857       16.2838676152
  N        15.8404468749       19.7264942438       17.5558228882
  C        16.1101262007       21.0262355343       17.2871511857
  N        15.8129706775        8.9190247574        6.7482183101
  C        16.0826264050       10.2187731585        6.4795231666
  N         6.5571151612       19.7382848187        5.2200199189
  C         6.2907521976       21.0387085300        5.4887001507
  N         6.5571151458        8.9308017866       16.0276489327
  C         6.2907674232       10.2312320866       16.2963441314
  N         6.5515951280        3.0493143627       17.5676226611
  C         6.2812416496        1.7495679643       17.2996285266
  N         6.5515989742       13.8568467820        6.7599941446
  C         6.2812468813       12.5570996376        6.4919945862
  N         5.0096690059       16.0296046561        3.0512723068
  C         5.2766771353       16.2976407526        1.7508431135
  N         5.0096638949        5.2219824513       13.8588045226
  C         5.2767011810        5.4899869948       12.5583748954
  N        17.3784586741       16.0138934879       19.7245364469
  C        17.1121256348       16.2826028533       21.0249598496
  N        17.3509739109        5.2062819826        8.9170693257
  C        17.0846305285        5.4749754592       10.2174992449
  N         5.0191026804        6.7619512426       19.7402423805
  C         5.2887523144        6.4932488609       21.0399840171
  N         5.0191030186       17.5695755403        8.9327587947
  C         5.2887586644       17.3008867592       10.2325069142
  N        17.3454492416        6.7462753312        3.0355811932
  C        17.0751463203        6.4782302449        1.7358347636
  N        17.3729405937       17.5538753021       13.8430941218
  C        17.1026031172       17.2858680176       12.5433476444
  N         4.9978871411        3.0512812992        6.7619692155
  C         5.2642132132        1.7508524281        6.4932531497
  N         5.0253613503       13.8587951572       17.5695705152
  C         5.2917149525       12.5583662048       17.3008846930
  N        17.3666697051       19.7245418240        6.7462598374
  C        17.0996699740       21.0249657016        6.4782144660
  N        17.3666758938        8.9170597721       17.5538772206
  C        17.0996464374       10.2174899696       17.2858683760
  N         5.0308861478       19.7402359740       16.0295942480
  C         5.3012046176       21.0399770298       16.2976251749
  N         5.0034048005        8.9327674600        5.2219859782
  C         5.2737397903       10.2325152130        5.4899940075
  N        17.3572379126        3.0355731880       16.0139038028
  C        17.0876039557        1.7358266374       16.2826198379
  N        17.3572397306       13.8431045887        5.2062776459
  C        17.0875930423       12.5433576069        5.4749785304
  N         2.8574172056       16.0323526082       17.5723261106
  C         1.5573308009       16.3023800739       17.3056570820
  N        13.6511921326       16.0186217690        6.7509704013
  C        12.3511050010       16.2886364556        6.4842844837
  N        19.5306684760       16.0111462292        5.2035228946
  C        20.8314324255       16.2778642577        5.4701956691
  N         8.7369419746       16.0248812283       16.0248819484
  C        10.0377123710       16.2915767398       16.2915771618
  N        19.5345822213        6.7434976372       17.5511123716
  C        20.8339813728        6.4734746227       17.2811328653
  N         8.7133733816        6.7572434884        6.7572389038
  C        10.0127793842        6.4872331303        6.4872463657
  N         2.8299374464        6.7647249363        5.2247505191
  C         1.5298505486        6.4980083927        5.4947309347
  N        13.6511909887        6.7509730517       16.0186242802
  C        12.3511038488        6.4842814032       16.2886332599
  N        15.8247484119        5.2082380073       19.7265028004
  C        16.0951144939        5.4762214435       21.0262437290
  N        15.8247500835       16.0158652504        8.9190186303
  C        16.0950967718       16.2838671796       10.2187663662
  N        15.8192230029       17.5558320432        3.0375297194
  C        16.0856119662       17.2871796053        1.7371010928
  N        15.8192291627        6.7482133185       13.8450623949
  C        16.0855938720        6.4795322962       12.5446331539
  N         6.5358993227        5.2200344394        3.0493246729
  C         6.2662177370        5.4887036525        1.7495778550
  N         6.5633796765       16.0276435353       13.8568389177
  C         6.2937200195       16.2963373289       12.5570915467
  N         6.5728194281       17.5676037471       19.7382751085
  C         6.3057564640       17.2996218848       21.0386990529
  N         6.5453319762        6.7599985419        8.9308068320
  C         6.2782941043        6.4919912141       10.2312376928
  N        19.5345835303       17.5511131827        6.7434962137
  C        20.8339826816       17.2811337344        6.4734730981
  N         8.7408579454       17.5648486779       17.5648523346
  C        10.0402632530       17.2948547459       17.2948501630
  N         2.8299372504        5.2247494093        6.7647249685
  C         1.5298503699        5.4947335337        6.4980121204
  N        13.6511900528        5.2109946413       17.5585954677
  C        12.3511032431        5.4809984550       17.2919049688
  N         2.8574172639       17.5723251914       16.0323501456
  C         1.5573308630       17.3056621862       16.3023835784
  N        13.6511912460       17.5585947422        5.2109938948
  C        12.3511044179       17.2919026829        5.4809960931
  N        19.5306670705        5.2035247141       16.0111449916
  C        20.8314310026        5.4701935414       16.2778670267
  N         8.7094592119        5.2172705163        5.2172726793
  C        10.0102296609        5.4839689780        5.4839590317
  N         6.5728170516       19.7382757878       17.5676051853
  C         6.3057617754       21.0386996704       17.2996156100
  N         6.5453284152        8.9308064022        6.7600025845
  C         6.2782994803       10.2312373144        6.4919865897
  N         6.5358977593        3.0493244454        5.2200335383
  C         6.2662270073        1.7495775476        5.4887132573
  N         6.5633775945       13.8568392936       16.0276413612
  C         6.2937252937       12.5570919640       16.2963428189
  N        15.8192212621        3.0375299286       17.5558320106
  C        16.0856091837        1.7371013644       17.2871782722
  N        15.8192329207       13.8450622062        6.7482163290
  C        16.0855848224       12.5446329788        6.4795225479
  N        15.8247510349       19.7265023993        5.2082365278
  C        16.0951070852       21.0262434015        5.4762297715
  N        15.8247508730        8.9190190495       16.0158632484
  C        16.0950914097       10.2187667510       16.2838715421
  N        17.3666745861        6.7462542723       19.7245422122
  C        17.0996584991        6.4782251234       21.0249660630
  N        17.3666785444       17.5538754160        8.9170592076
  C        17.0996427345       17.2858730885       10.2174894653
  N         4.9978840153        6.7619651668        3.0512819794
  C         5.2642228130        6.4932623447        1.7508529898
  N         5.0253597927       17.5695688711       13.8587946103
  C         5.2917211539       17.3008906613       12.5583656823
  N        17.3572393796       16.0139033029        3.0355724323
  C        17.0876034062       16.2826178629        1.7358259745
  N        17.3572416709        5.2062807479       13.8431051973
  C        17.0875822106        5.4749684305       12.5433581240
  N         5.0308840534       16.0295970939       19.7402355711
  C         5.3012112981       16.2976194058       21.0399765970
  N         5.0034050737        5.2219847951        8.9327678504
  C         5.2737418912        5.4899911129       10.2325155830
  N        17.3784536667       19.7245372446       16.0138883608
  C        17.1121368176       21.0249605099       16.2826143236
  N        17.3509729365        8.9170687336        5.2062811220
  C        17.0846380100       10.2174987788        5.4749826285
  N         5.0096653628        3.0512728315       16.0296073048
  C         5.2766750017        1.7508435940       16.2976417927
  N         5.0096653527       13.8588041670        5.2219816651
  C         5.2767039072       12.5583745562        5.4899850969
  N        17.3454533915        3.0355809014        6.7462719861
  C        17.0751417461        1.7358344633        6.4782356459
  N        17.3729423467       13.8430944983       17.5538727443
  C        17.1026009038       12.5433480656       17.2858692444
  N         5.0191071088       19.7402416514        6.7619543353
  C         5.2887397966       21.0399833980        6.4932356568
  N         5.0191026502        8.9327594826       17.5695762670
  C         5.2887554368       10.2325075240       17.3008842703
  N        19.5188840391        6.7435044899        5.2035320203
  C        20.8189657301        6.4734787694        5.4702041759
  N         8.7251575536        6.7572347521       16.0248890520
  C        10.0252458775        6.4872403374       16.2915921644
  N         2.8456345391        6.7647166564       17.5723345781
  C         1.5448654429        6.4980011036       17.3056604830
  N        13.6394096307        6.7509817378        6.7509770089
  C        12.3386398127        6.4842757108        6.4842893388
  N         2.8417188858       16.0323680958        5.2247382544
  C         1.5423145520       16.3023827902        5.4947255796
  N        13.6629724508       16.0186151512       16.0186185329
  C        12.3635677593       16.2886252842       16.2886139576
  N        19.5463677163       16.0111359719       17.5511075645
  C        20.8464491866       16.2778564134       17.2811306536
  N         8.7251586993       16.0248890013        6.7572346040
  C        10.0252470362       16.2915923473        6.4872403998
  N         6.5515995129       17.5676195968        3.0493138964
  C         6.2812402499       17.2996310339        1.7495675381
  N         6.5515949067        6.7599971155       13.8568472241
  C         6.2812500220        6.4919905885       12.5571000371
  N         6.5571193065        5.2200250579       19.7382848906
  C         6.2907373513        5.4886860376       21.0387087190
  N         6.5571162407       16.0276492046        8.9308015225
  C         6.2907662477       16.2963422444       10.2312318043
  N        15.8404436789       17.5558200039       19.7264940016
  C        16.1101381062       17.2871627390       21.0262351724
  N        15.8129678328        6.7482156727        8.9190250817
  C        16.0826337194        6.4795307634       10.2187734336
  N        15.8035294149        5.2082496629        3.0375393530
  C        16.0705814490        5.4762417123        1.7371101522
  N        15.8310118772       16.0158597407       13.8450531993
  C        16.0980508018       16.2838683534       12.5446236136
 Zn        14.4541702746       14.6415029360       14.6415021885
 Br        13.1405747423       13.3329054361       13.3329046974
 Zn        14.4266534259        3.8339013587        3.8339019022
 Br        13.1130885578        2.5252866642        2.5252872193
 Zn         3.6328312823       14.6552177481        3.8476351739
 Br         2.3192196956       13.3466501628        2.5390202952
 Zn         3.6328302054        3.8476354293       14.6552178957
 Br         2.3192183084        2.5390204906       13.3466506594
 Zn         7.9304604820        8.1343548092       14.6497954790
 Br         9.2407250430        9.4429554946       13.3378639655
 Zn         7.9305056486       18.9419546538        3.8421685338
 Br         9.2407344647       20.2505831233        2.5302260295
 Zn        18.7243017850        8.1206645267        3.8284363514
 Br        20.0345935494        9.4292293198        2.5164931646
 Zn        18.7517925258       18.9282136787       14.6359926912
 Br        20.0620782727       20.2368371706       13.3241026821
 Zn         7.9304613301       14.6497954219        8.1343547426
 Br         9.2407261966       13.3378642909        9.4429554781
 Zn         7.9305046148        3.8421686557       18.9419545267
 Br         9.2407328548        2.5302258517       20.2505832719
 Zn        18.7517925972       14.6359930756       18.9282127236
 Br        20.0620782474       13.3241031110       20.2368363412
 Zn        18.7243017415        3.8284361329        8.1206652953
 Br        20.0345926918        2.5164925716        9.4292304957
 Zn        14.4376066029        8.1260753749        8.1260753578
 Br        13.1306750323        9.4380058280        9.4380058523
 Zn        14.4650358149       18.9336681650       18.9336679748
 Br        13.1581456280       20.2456208118       20.2456198556
 Zn         3.6437397796        8.1398521728       18.9474089181
 Br         2.3367973842        9.4517470572       20.2593671451
 Zn         3.6437405596       18.9474086056        8.1398518105
 Br         2.3367980958       20.2593670059        9.4517464929
 Zn        14.4458889356       14.6415089554        8.1260723421
 Br        13.1356250248       13.3329095239        9.4380048504
 Zn        14.4458437726        3.8338827782       18.9336730051
 Br        13.1356158324        2.5252720648       20.2456331738
 Zn         3.6520216584       14.6551992064       18.9474053579
 Br         2.3417470943       13.3466358296       20.2593661935
 Zn         3.6245487126        3.8476415676        8.1398571229
 Br         2.3142685566        2.5390249583        9.4517598749
 Zn         7.9221758616        8.1343576719        8.1343579976
 Br         9.2357720576        9.4429566538        9.4429564500
 Zn         7.9497106235       18.9419508430       18.9419500482
 Br         9.2632651102       20.2505718855       20.2505707071
 Zn        18.7435068228        8.1206606985       18.9282165753
 Br        20.0571239257        9.4292182998       20.2368378282
 Zn        18.7435079501       18.9282163784        8.1206602413
 Br        20.0571252120       20.2368377099        9.4292176172
 Zn        14.4458881485        8.1260723765       14.6415088686
 Br        13.1356243595        9.4380051604       13.3329095605
 Zn        14.4458450732       18.9336726665        3.8338826625
 Br        13.1356177293       20.2456328616        2.5252713793
 Zn         3.6245491413        8.1398566232        3.8476422485
 Br         2.3142691575        9.4517590609        2.5390251446
 Zn         3.6520219199       18.9474058068       14.6551982521
 Br         2.3417474233       20.2593664052       13.3466345611
 Zn         7.9387467654       14.6497886027       14.6497884180
 Br         9.2456795282       13.3378593064       13.3378588348
 Zn         7.9112998448        3.8421871837        3.8421875303
 Br         9.2182025895        2.5302408632        2.5302414603
 Zn        18.7325879386       14.6360116078        3.8284289923
 Br        20.0395477955       13.3241176799        2.5164880315
 Zn        18.7325868090        3.8284291531       14.6360120657
 Br        20.0395464367        2.5164878979       13.3241181655
 Zn         5.7843925411        5.9910123410       16.7985772282
 Zn        16.6056805819       16.7848275050       16.7848269954
 Zn        16.5781989155        5.9772783610        5.9772790011
 Zn         5.7843939590       16.7985767080        5.9910117498
 Zn         5.7706526280        5.9910198754        5.9910206041
 Zn        16.5919404248       16.7848351286        5.9772700657
 Zn         5.7981341039       16.7985689583       16.7985684504
 Zn        16.5919390312        5.9772706587       16.7848357719
  N         3.5821002329        5.9938051876       16.8013953074
  N        14.3758774092        5.9800529999        5.9800553930
  N        18.8079381391       16.7820411591       16.7820403333
  N         7.9867294391       16.7958076449        5.9881822944
  N        18.7804543262        5.9744671260        5.9744676042
  N         7.9867281857        5.9881829090       16.7958080615
  N         3.5821017021       16.8013950534        5.9938047651
  N        14.4033574215       16.7876633200       16.7876626524
  N        16.5754187682        3.7749846282        5.9772712004
  N        16.6029157036       14.5825016998       16.7848638383
  N        16.6084971259       18.9870857089       16.7848419940
  N        16.5810316977        8.1796161732        5.9772499169
  N         5.7871816472       19.0008330232        5.9909971394
  N         5.7871617105        8.1933502958       16.7986041037
  N         5.7815870813        3.7887185317       16.7985956319
  N         5.7815671999       14.5962529746        5.9909912193
  N         5.7815860207       16.7985978761        3.7887178904
  N         5.7815682389        5.9909892291       14.5962536119
  N        16.6084964013       16.7848417640       18.9870853138
  N        16.5810325093        5.9772506100        8.1796167403
  N         5.7871795603        5.9909965050       19.0008336263
  N         5.7871630759       16.7986043374        8.1933496859
  N        16.5754227859        5.9772665838        3.7749851559
  N        16.6029176825       16.7848627449       14.5825013931
  N         5.7678393814        3.7887276915        5.9910087549
  N         5.7953061323       14.5962448056       16.7986023325
  N        16.5947620822       18.9870919687        5.9772573600
  N        16.5947755012        8.1796088822       16.7848682139
  N         5.8009269851       19.0008256212       16.7985851873
  N         5.7734295613        8.1933563071        5.9909930907
  N        16.5891570761        3.7749764714       16.7848558665
  N        16.5891715898       14.5825109800        5.9772435208
  N         3.5958415068       16.8013862756       16.8013855739
  N        14.3896185202       16.7876687283        5.9800434734
  N        18.7941962549       16.7820541747        5.9744620271
  N         8.0004701280       16.7958060392       16.7958021714
  N        18.7941948626        5.9744607188       16.7820561346
  N         7.9729863982        5.9881938808        5.9881967664
  N         3.5683616774        5.9938066138        5.9938072775
  N        14.3896173133        5.9800421475       16.7876672840
  N        16.5947575033        5.9772610161       18.9870925655
  N        16.5947769044       16.7848678493        8.1796082384
  N        16.5891581834       16.7848548905        3.7749758152
  N        16.5891704142        5.9772435283       14.5825116220
  N         5.7678402844        5.9910086961        3.7887283057
  N         5.7953062720       16.7986024947       14.5962444605
  N         5.8009265370       16.7985864236       19.0008252167
  N         5.7734265617        5.9909953929        8.1933569536
  C        11.1992743834       15.7530747076       15.7530768332
  H        11.1973245206       14.9862551327       14.9862545266
  C        11.1717926346        4.9454580148        4.9454653060
  H        11.1698427748        4.1786391032        4.1786401467
  C         0.3780288260       15.7668493122        4.9591673097
  H         0.3760792158       15.0000267529        4.1923476272
  C         0.3780274889        4.9591697057       15.7668477264
  H         0.3760778457        4.1923475629       15.0000276315
  C        11.1881748023        7.0227815559       15.7530882726
  H        11.1881750062        7.7896052728       14.9862674927
  C        11.1881759803       17.8304126070        4.9454568556
  H        11.1881761677       18.5972327798        4.1786303371
  C         0.3669291106        7.0365110899        4.9591846543
  H         0.3669295868        7.8033317393        4.1923604552
  C         0.3944110117       17.8441697418       15.7668404289
  H         0.3944114442       18.6109918751       15.0000177020
  C        11.1881759454       15.7530870144        7.0227801741
  H        11.1881761281       14.9862674180        7.7896050627
  C        11.1881747804        4.9454564027       17.8304120410
  H        11.1881749149        4.1786307776       18.5972331119
  C         0.3944109993       15.7668424609       17.8441702586
  H         0.3944114656       15.0000184969       18.6109911460
  C         0.3669290471        4.9591800914        7.0365079586
  H         0.3669294800        4.1923596742        7.8033324037
  C        11.1770751359        7.0227853269        7.0227787838
  H        11.1790252069        7.7896027154        7.7896035432
  C        11.2045569117       17.8303991498       17.8303960589
  H        11.2065070158       18.5972204328       18.5972191269
  C         0.3833100115        7.0364960483       17.8441703410
  H         0.3852603560        7.8033193690       18.6109895423
  C         0.3833113543       17.8441684022        7.0364972430
  H         0.3852617355       18.6109895868        7.8033185761
  C        15.5588668945       11.3823786140       15.7475282693
  H        14.7910708573       11.3833543521       14.9816817854
  C        15.5314108455        0.5748721178        4.9398857450
  H        14.7636114224        0.5758481831        4.1740423173
  C         4.7375159491       11.3961280452        4.9536477243
  H         3.9697189793       11.3971037556        4.1877999947
  C         4.7374907147        0.5886058825       15.7612991051
  H         3.9696927009        0.5895819649       14.9954543039
  C        15.5477779005       11.3823853362        7.0172390639
  H        14.7819285118       11.3833599473        7.7850323575
  C        15.5477925600        0.5748631480       17.8248908111
  H        14.7819450434        0.5758380947       18.5926862884
  C         4.7539027108       11.3961191717       17.8385998609
  H         3.9880519288       11.3970938327       18.6063939249
  C         4.7264003036        0.5886126302        7.0309675993
  H         3.9605500722        0.5895875142        7.7987603424
  C         6.8285809397       11.3934796025       15.7586342224
  H         7.5944291877       11.3925055035       14.9908398121
  C         6.8010749871        0.5859729854        4.9509930636
  H         7.5669250960        0.5849990781        4.1832001863
  C        17.6224472075       11.3797457565        4.9372645278
  H        18.3882971239       11.3787716064        4.1694696100
  C        17.6224742181        0.5722235099       15.7449203983
  H        18.3883210073        0.5712496243       14.9771242349
  C         6.8174769354       11.3934851911        7.0283291878
  H         7.5852726611       11.3925097409        7.7941762599
  C         6.8174540342        0.5859629298       17.8359865320
  H         7.5852540597        0.5849877790       18.6018296160
  C        17.6388284614       11.3797357225       17.8222120172
  H        18.4066260852       11.3787603319       18.5880593690
  C        17.6113654788        0.5722291350        7.0145817149
  H        18.3791648428        0.5712539036        7.7804254181
  C        15.5588659758       15.7475299919       11.3823781254
  H        14.7910710549       14.9816823697       11.3833538895
  C        15.5314088139        4.9398870103        0.5748725054
  H        14.7636115359        4.1740414371        0.5758486944
  C         4.7374897826       15.7613009819        0.5886054428
  H         3.9696937775       14.9954541598        0.5895815791
  C         4.7375150691        4.9536477601       11.3961283824
  H         3.9697181792        4.1877999488       11.3971041603
  C         6.8285839448       15.7586365996       11.3934793461
  H         7.5944300032       14.9908399938       11.3925054229
  C         6.8010808113        4.9509991600        0.5859729433
  H         7.5669240707        4.1831994538        0.5849986821
  C        17.6224790182       15.7449243202        0.5722225544
  H        18.3883218756       14.9771242383        0.5712482464
  C        17.6224510719        4.9372689312       11.3797463556
  H        18.3882959964        4.1694690317       11.3787724260
  C        15.5477724162        7.0172342105       11.3823855073
  H        14.7819283753        7.7850328380       11.3833600311
  C        15.5477899890       17.8248872655        0.5748630754
  H        14.7819462507       18.5926865026        0.5758384067
  C         4.7263935341        7.0309610909        0.5886134593
  H         3.9605501997        7.7987607159        0.5895888223
  C         4.7539012402       17.8385978241       11.3961185008
  H         3.9880528089       18.6063942283       11.3970929368
  C         6.8174768219        7.0283284615       11.3934855843
  H         7.5852723528        7.7941757289       11.3925102832
  C         6.8174577301       17.8359836542        0.5859623389
  H         7.5852553856       18.6018291067        0.5849870830
  C        17.6113672186        7.0145791915        0.5722294244
  H        18.3791649057        7.7804245774        0.5712542780
  C        17.6388302162       17.8222111490       11.3797352552
  H        18.4066271000       18.5880592337       11.3787598998
 Kr        21.4137122548       10.7944595868       10.7944595876
