     409
 i =     407, E =     -953.2741594171
  N         2.9515536804        5.2397680396       16.0002832413
  C         1.6499568064        5.5015706993       16.2689373907
  N        13.7895043978        5.1330132936        5.1329938876
  C        12.4861639197        5.3942871970        5.3943072244
  N        19.6248970210       17.5549132934       16.0150205303
  C        20.9248013730       17.2950135524       16.2917315526
  N         8.8420890164       17.6190215023        5.2238901473
  C        10.1416496123       17.3161300827        5.4573055367
  N        19.6649235403        5.2089169406        6.7494306075
  C        20.9649138916        5.4836910779        6.4871168492
  N         8.8420996061        5.2238727701       17.6190459968
  C        10.1416603042        5.4572753415       17.3161445879
  N         2.9446024539       17.5494980661        6.7706602171
  C         1.6458318287       17.2775925773        6.4994775634
  N        13.7406286230       17.6083740180       17.6083717149
  C        12.4359822073       17.3497666620       17.3497686252
  N        15.9942928530        3.0048294483        5.1696901733
  C        16.2563625927        1.7060618217        5.4483351038
  N        15.8867050384       13.8501971337       16.0537270397
  C        16.1607851557       12.5481260323       16.3136989518
  N        15.9455683643       19.7487574990       17.5731374572
  C        16.2161298772       21.0470310435       17.2980270512
  N        15.9425019189        8.8969538149        6.7056934145
  C        16.2149233123       10.1994185361        6.4471750869
  N         6.6279903450       19.7302147498        5.2091787962
  C         6.3592156005       21.0307006156        5.4719550045
  N         6.5972764877        8.9631633697       16.0430707017
  C         6.3235209060       10.2642946996       16.3125561348
  N         6.6588381880        3.0738267013       17.5477964237
  C         6.3805416845        1.7735951857       17.2911243430
  N         6.6927610226       13.8158348452        6.8224038601
  C         6.4246715818       12.5203941237        6.5300571170
  N         5.1308089704       15.9961283025        3.0713422118
  C         5.3850253750       16.2802360860        1.7715347153
  N         5.1515922595        5.2835443483       13.8459103182
  C         5.4191188476        5.5288437701       12.5408025034
  N        17.4710643015       16.0183706953       19.7388216804
  C        17.2103926503       16.2856456225       21.0409223860
  N        17.4837320528        5.1687743183        8.9025210880
  C        17.2189445285        5.4446678483       10.2016876781
  N         5.0997433726        6.7610606657       19.7371180600
  C         5.3642429326        6.4834321458       21.0358480944
  N         5.0859650165       17.6102249795        8.9563870661
  C         5.3393185102       17.3348281368       10.2580436306
  N        17.5137848226        6.7303011269        3.0090041995
  C        17.2456486353        6.4654910871        1.7080176841
  N        17.4572348055       17.5614644637       13.8487456324
  C        17.1851515797       17.2955970425       12.5489480712
  N         5.0984093161        3.0234513701        6.7328476039
  C         5.3636863366        1.7216310056        6.4699860119
  N         5.0698817467       13.8840213383       17.6347925060
  C         5.3304015535       12.5857084513       17.3490959203
  N        17.4932867235       19.7213173233        6.7563199956
  C        17.2358126501       21.0216946883        6.4782589066
  N        17.4808192920        8.9238251504       17.5497776687
  C        17.1960504265       10.2224069360       17.2906425729
  N         5.0776537049       19.7848696135       16.0613352575
  C         5.3592844967       21.0854658056       16.3129550244
  N         5.1393760634        8.9207854973        5.1836733862
  C         5.4132184628       10.2144823330        5.4785999210
  N        17.4904713763        3.0267455222       16.0081019146
  C        17.2192368535        1.7277642435       16.2801768435
  N        17.5048854246       13.8280082989        5.1929474740
  C        17.2307220031       12.5281915134        5.4570607070
  N         2.9101653961       16.0588439963       17.5994070264
  C         1.6104306761       16.3131896741       17.3165491216
  N        13.7677541771       15.9666210004        6.6487717034
  C        12.4676479529       16.2448809720        6.3874961984
  N        19.6639279269       16.0046276490        5.2157601726
  C        20.9633114831       16.2710873938        5.4902410364
  N         8.7886062883       16.1038555539       16.1038724410
  C        10.0938417082       16.3628814364       16.3628955522
  N        19.6588330677        6.7531832410       17.5478358894
  C        20.9596623670        6.4908320666       17.2772872585
  N         8.8497011372        6.6512812039        6.6513824778
  C        10.1519045131        6.3869408453        6.3870424271
  N         2.9514215084        6.7589313754        5.2185345653
  C         1.6512837771        6.4919253516        5.4885934364
  N        13.7677652161        6.6487252864       15.9666208481
  C        12.4676592312        6.3874463901       16.2448786515
  N        15.9753992697        5.1948389559       19.7217775000
  C        16.2469956370        5.4607668274       21.0211667715
  N        15.9045580121       16.0480951406        8.9153900675
  C        16.1695508090       16.3109763498       10.2187443642
  N        15.9589671735       17.5571861793        3.0345258105
  C        16.2226763998       17.2902607043        1.7332157202
  N        15.9713535880        6.7381269674       13.8294403143
  C        16.2297044507        6.4627609878       12.5278083364
  N         6.6239915714        5.1770632481        3.0128548185
  C         6.3573227383        5.4569884106        1.7153800882
  N         6.5823653191       16.0699072412       13.8968367510
  C         6.3149183858       16.3279375919       12.5935833538
  N         6.6088222630       17.6113712559       19.7889018051
  C         6.3560086086       17.3230679912       21.0878720833
  N         6.6886551933        6.7112587763        8.8847997898
  C         6.4225514310        6.4757642842       10.1922349475
  N        19.6588233849       17.5478305338        6.7531908183
  C        20.9596532662       17.2772869733        6.4908367988
  N         8.8099730085       17.6427797344       17.6427778767
  C        10.1074300450       17.3662343032       17.3662371926
  N         2.9514236385        5.2185388605        6.7589514319
  C         1.6512845175        5.4885900368        6.4919417515
  N        13.7707761494        5.1961352012       17.5882683599
  C        12.4694722548        5.4427791269       17.3030736404
  N         2.9101651471       17.5994093569       16.0588407933
  C         1.6104305074       17.3165513794       16.3131869715
  N        13.7707651891       17.5882392948        5.1961479630
  C        12.4694613215       17.3030561576        5.4428061860
  N        19.6639357901        5.2157554931       16.0046294789
  C        20.9633196772        5.4902387189       16.2710851879
  N         8.8579428227        5.1131395451        5.1131286769
  C        10.1579457535        5.3838139377        5.3838415549
  N         6.6088196047       19.7889058937       17.6113652538
  C         6.3560060795       21.0878757882       17.3230605684
  N         6.6885378962        8.8847834230        6.7111670818
  C         6.4224460175       10.1922277241        6.4756875741
  N         6.6239951247        3.0128633088        5.1770733236
  C         6.3573242005        1.7153882085        5.4569972062
  N         6.5823492918       13.8968380663       16.0698897633
  C         6.3148944167       12.5935877353       16.3279244653
  N        15.9589734979        3.0345211435       17.5571915448
  C        16.2226797565        1.7332113373       17.2902628718
  N        15.9713302173       13.8294292435        6.7381357372
  C        16.2296839942       12.5277985231        6.4627670388
  N        15.9753849345       19.7217716089        5.1948475851
  C        16.2469843801       21.0211611642        5.4607725563
  N        15.9045668378        8.9153804822       16.0481165379
  C        16.1695579441       10.2187367340       16.3109911941
  N        17.4932960597        6.7563164382       19.7213237468
  C        17.2358206171        6.4782562503       21.0217009472
  N        17.4808048768       17.5497631149        8.9238265054
  C        17.1960402030       17.2906310009       10.2224095996
  N         5.0983942153        6.7328269783        3.0234417779
  C         5.3636789093        6.4699713909        1.7216226385
  N         5.0698778945       17.6347901679       13.8840080098
  C         5.3304115511       17.3490959771       12.5856972921
  N        17.4904645151       16.0080960003        3.0267500802
  C        17.2192333716       16.2801743753        1.7277685529
  N        17.5048980898        5.1929295864       13.8280139191
  C        17.2307356552        5.4570481800       12.5281981385
  N         5.0776524328       16.0613456004       19.7848665128
  C         5.3592842500       16.3129653882       21.0854622491
  N         5.1394780372        5.1837760062        8.9207685008
  C         5.4133151654        5.4786842759       10.2144713919
  N        17.4710643865       19.7388181309       16.0183691942
  C        17.2103933312       21.0409186665       16.2856446597
  N        17.4837246563        8.9025147542        5.1687833365
  C        17.2189323888       10.2016808077        5.4446757347
  N         5.1308176887        3.0713477770       15.9961107661
  C         5.3850285828        1.7715392637       16.2802219598
  N         5.1515331369       13.8459255121        5.2834840102
  C         5.4190418532       12.5408135237        5.5287761263
  N        17.5137812640        3.0089977687        6.7303032395
  C        17.2456428393        1.7080116873        6.4654932210
  N        17.4572379338       13.8487445120       17.5614658391
  C        17.1851568964       12.5489457059       17.2956020656
  N         5.0997452525       19.7371242527        6.7610675003
  C         5.3642447067       21.0358549054        6.4834398745
  N         5.0859530990        8.9563989632       17.6102451512
  C         5.3393004764       10.2580542893       17.3348353567
  N        19.6649237306        6.7494186836        5.2089214047
  C        20.9649137414        6.4871048805        5.4836968009
  N         8.8366594407        6.6761644931       15.9975837542
  C        10.1391984059        6.4022065844       16.2576511661
  N         2.9446112567        6.7706597389       17.5494910925
  C         1.6458408249        6.4994758849       17.2775862889
  N        13.7762390139        6.6724184856        6.6725019027
  C        12.4783509229        6.3975901639        6.3976802474
  N         2.9515443148       16.0002996126        5.2397594612
  C         1.6499479804       16.2689485674        5.5015675244
  N        13.7192159453       16.0687267534       16.0687376973
  C        12.4221615331       16.3464850567       16.3464960736
  N        19.6248974817       16.0150225589       17.5549120941
  C        20.9248016702       16.2917336783       17.2950118179
  N         8.8366483556       15.9975874449        6.6762144076
  C        10.1391872963       16.2576561764        6.4022591454
  N         6.6588389415       17.5478042989        3.0738235370
  C         6.3805435415       17.2911334940        1.7735914467
  N         6.6928300851        6.8224567218       13.8158445278
  C         6.4247564159        6.5301196574       12.5203999769
  N         6.6279917354        5.2091747473       19.7302082955
  C         6.3592164122        5.4719500176       21.0306937601
  N         6.5973093274       16.0430691865        8.9631606619
  C         6.3235528685       16.3125620778       10.2642900328
  N        15.9455677412       17.5731386553       19.7487609539
  C        16.2161290451       17.2980278928       21.0470347277
  N        15.9425256420        6.7057006123        8.8969644732
  C        16.2149445385        6.4471762346       10.1994283716
  N        15.9943029552        5.1696819021        3.0048335964
  C        16.2563720837        5.4483293335        1.7060666971
  N        15.8867040413       16.0537236197       13.8502052742
  C        16.1607814450       16.3136923300       12.5481331159
 Zn        14.5316835018       14.6983874520       14.6983923842
 Br        13.2612131257       13.3759671787       13.3759648916
 Zn        14.6173174585        3.7767132116        3.7767130980
 Br        13.3096201081        2.4648877435        2.4648888674
 Zn         3.7687052108       14.6250883775        3.8820328599
 Br         2.4737145871       13.2913242695        2.5802194374
 Zn         3.7687388229        3.8820645058       14.6250654275
 Br         2.4737599050        2.5802663086       13.2912773581
 Zn         8.0258683411        8.1437726799       14.7338351522
 Br         9.5380377715        9.6473452966       13.9707275475
 Zn         8.0265922802       18.9527807233        3.8410846713
 Br         9.3357896705       20.2537258762        2.5208750696
 Zn        18.8727969473        8.1182342841        3.8143668419
 Br        20.1899983928        9.4271582620        2.5094212044
 Zn        18.8367543377       18.9312141994       14.6362748843
 Br        20.1478454026       20.2410498419       13.3261012371
 Zn         8.0258276226       14.7337499928        8.1437421989
 Br         9.5378924594       13.9702404529        9.6472071224
 Zn         8.0265889995        3.8410679763       18.9527913752
 Br         9.3357834373        2.5208568177       20.2537372711
 Zn        18.8367565621       14.6362809838       18.9312149085
 Br        20.1478480351       13.3261057099       20.2410488180
 Zn        18.8727981350        3.8143546908        8.1182365787
 Br        20.1900132749        2.5094158216        9.4271541928
 Zn        14.5825037666        8.0459102310        8.0459232366
 Br        13.2838338476        9.3548417339        9.3548960113
 Zn        14.5745703241       18.9680586753       18.9680565194
 Br        13.2837553520       20.2881019500       20.2881005858
 Zn         3.7138793260        8.1360330735       18.9582063058
 Br         2.3930694886        9.4226758674       20.2816740685
 Zn         3.7138860957       18.9581971985        8.1360351690
 Br         2.3930854827       20.2816780259        9.4226754938
 Zn        14.5870565463       14.6636198369        8.0688376665
 Br        13.3439082349       13.3085400631        9.3849435932
 Zn        14.5835996024        3.8254425039       18.9456991257
 Br        13.2708052281        2.5141409922       20.2523944617
 Zn         3.6947709390       14.6834952643       18.9907571893
 Br         2.3869065211       13.3795681241       20.3102183938
 Zn         3.7415050727        3.8285029531        8.1295422880
 Br         2.4281758570        2.5249521123        9.4419763979
 Zn         8.0485998702        8.0067531527        8.0066446575
 Br         9.4006837633        9.2887298189        9.2874735354
 Zn         7.9899579492       19.0016269766       19.0016241266
 Br         9.2930521374       20.3151465107       20.3151424880
 Zn        18.8612936538        8.1359333899       18.9233224074
 Br        20.1677467807        9.4461388722       20.2372674587
 Zn        18.8612790564       18.9233090870        8.1359392722
 Br        20.1677343826       20.2372586146        9.4461390292
 Zn        14.5870864736        8.0688021095       14.6636549260
 Br        13.3439458022        9.3849006749       13.3085683711
 Zn        14.5835871647       18.9456827497        3.8254563425
 Br        13.2708013225       20.2523834871        2.5141513824
 Zn         3.7414467466        8.1295231821        3.8284484905
 Br         2.4280978356        9.4419178456        2.5248772646
 Zn         3.6947697184       18.9907538065       14.6834851029
 Br         2.3869069644       20.3102324321       13.3795736332
 Zn         7.9559147449       14.7464260507       14.7464240219
 Br         9.3466168179       13.4861111823       13.4859702509
 Zn         8.0028361425        3.7688037588        3.7688023780
 Br         9.2728196345        2.4391133894        2.4391159244
 Zn        18.8735309283       14.6374973173        3.8223566893
 Br        20.2002667960       13.3441835571        2.5114890854
 Zn        18.8735391993        3.8223430241       14.6375020521
 Br        20.2002864536        2.5114839342       13.3441912097
 Zn         5.8898027580        6.0139478440       16.7980049514
 Zn        16.6810580643       16.8003833906       16.8003867970
 Zn        16.7300443570        5.9455429600        5.9455491842
 Zn         5.8897969727       16.7979924786        6.0139456777
 Zn         5.8865751728        5.9382367815        5.9382105637
 Zn        16.7212239916       16.7790961411        5.9689109775
 Zn         5.8411898005       16.8509257156       16.8509212895
 Zn        16.7212376582        5.9689014939       16.7791102219
  N         3.6865322446        6.0075919525       16.7759244757
  N        14.5212753884        5.9063580193        5.9063758556
  N        18.8864342692       16.7806754616       16.7806741158
  N         8.1011630474       16.8217744054        5.9634727150
  N        18.9269991323        5.9754159351        5.9754239849
  N         8.1011737830        5.9634450696       16.8217897665
  N         3.6865232303       16.7759370460        6.0075861929
  N        14.4685466423       16.8330545124       16.8330575864
  N        16.7554951922        3.7452324855        5.9464577546
  N        16.6711912701       14.5880492946       16.8088193121
  N        16.7056190357       19.0054462071       16.7979528679
  N        16.7113131602        8.1607909732        5.9330960695
  N         5.8654785113       18.9954079736        5.9896678089
  N         5.8487582437        8.2216000699       16.8296470576
  N         5.9004551172        3.8110330722       16.7655215147
  N         5.9226156759       14.5699646446        6.0644155836
  N         5.9004494113       16.7655342557        3.8110286687
  N         5.9226697114        6.0644667592       14.5699617547
  N        16.7056188566       16.7979542864       19.0054496516
  N        16.7113270427        5.9330960032        8.1607994398
  N         5.8654783371        5.9896625981       18.9954018954
  N         5.8487777531       16.8296290413        8.2215930420
  N        16.7555012866        5.9464521275        3.7452378096
  N        16.6711906587       16.8088186551       14.5880539381
  N         5.8613469287        3.7557577953        5.9499037036
  N         5.8290455575       14.6295285203       16.8601008250
  N        16.7303508032       18.9830535345        5.9788611324
  N        16.6986373554        8.1810042043       16.7966554101
  N         5.8353840140       19.0490579204       16.8460732553
  N         5.9119563611        8.1638651103        5.9318621485
  N        16.7272223910        3.7688065351       16.7816841535
  N        16.7408615692       14.5672772751        5.9683328738
  N         3.6479524925       16.8372927636       16.8372899014
  N        14.5080018825       16.7806166662        5.9284456629
  N        18.9232416292       16.7772217078        5.9811596502
  N         8.0604549103       16.8777627094       16.8777688800
  N        18.9232507602        5.9811519630       16.7772277697
  N         8.1144002277        5.8808413754        5.8808706863
  N         3.6896566980        5.9868914889        5.9868979133
  N        14.5080127899        5.9284215437       16.7806357805
  N        16.7303639646        5.9788539192       18.9830597804
  N        16.6986239423       16.7966353319        8.1810098388
  N        16.7272136952       16.7816763864        3.7688112175
  N        16.7408798282        5.9683174447       14.5672859661
  N         5.8613350414        5.9498866816        3.7557480551
  N         5.8290456086       16.8601079191       14.6295213724
  N         5.8353844514       16.8460811839       19.0490539870
  N         5.9120674428        5.9319678728        8.1638637520
  C        11.2507826466       15.8185459654       15.8185643845
  H        11.2400803412       15.0519160418       15.0519409557
  C        11.3267438499        4.8521230827        4.8521119573
  H        11.3341728188        4.0851812797        4.0851131368
  C         0.4887709186       15.7304482792        4.9617072371
  H         0.4919040877       14.9603949863        4.1980845592
  C         0.4887786914        4.9617094216       15.7304400448
  H         0.4919102338        4.1980887410       14.9603848283
  C        11.3039146713        6.8915538342       15.6787489943
  H        11.3058765461        7.6107171701       14.8678337136
  C        11.3057092198       17.8736458115        4.9423200600
  H        11.3056202384       18.6833995967        4.2208891517
  C         0.4880777063        7.0273638705        4.9503389986
  H         0.4878360230        7.7939683898        4.1832630871
  C         0.4476384765       17.8418436361       15.7645392095
  H         0.4476048108       18.6084785970       14.9974799140
  C        11.3039031801       15.6787672860        6.8916226692
  H        11.3058632073       14.8678675383        7.6108043559
  C        11.3057200465        4.9423014757       17.8736707894
  H        11.3056310789        4.2208870989       18.6834391787
  C         0.4476389390       15.7645416773       17.8418417460
  H         0.4476055169       14.9974824559       18.6084768004
  C         0.4880779345        4.9503391423        7.0273828558
  H         0.4878355656        4.1832697126        7.7939937907
  C        11.3104297581        6.9287129385        6.9288577857
  H        11.3034891213        7.6952878978        7.6954867361
  C        11.2792904352       17.8945320959       17.8945294484
  H        11.2906577220       18.6614513241       18.6614408437
  C         0.4806308491        7.0300447465       17.8161623590
  H         0.4774912201        7.7933121847       18.5865730112
  C         0.4806211955       17.8161636686        7.0300497963
  H         0.4774810019       18.5865717269        7.7933198168
  C        15.6160430885       11.3820075871       15.7886746693
  H        14.8327593192       11.3800438551       15.0386832281
  C        15.7228794749        0.5428203481        4.9093942051
  H        14.9675394521        0.5415394914        4.1312636291
  C         4.8775036265       11.3902510854        4.9698198720
  H         4.1076022134       11.4087307598        4.2063945220
  C         4.8396736051        0.6068898581       15.7552447891
  H         4.0786557528        0.6045980657       14.9826156473
  C        15.6858428923       11.3632872049        6.9918527130
  H        14.9193054548       11.3630469223        7.7588972094
  C        15.6871555232        0.5733751334       17.8354169459
  H        14.9271350996        0.5781422049       18.6089758214
  C         4.8068906498       11.4167125791       17.8869958773
  H         4.0549944768       11.4086420087       18.6685776335
  C         4.8318109708        0.5617595678        7.0187711925
  H         4.0721795227        0.5660414039        7.7927315265
  C         6.8405800104       11.4349128400       15.7702799540
  H         7.5925704331       11.4450029121       14.9897182017
  C         6.8902474876        0.5499559113        4.9223441201
  H         7.6496499855        0.5453136271        4.1481904443
  C        17.7610140935       11.3651866173        4.9137162420
  H        18.5276396414       11.3655480332        4.1466798577
  C        17.7472279606        0.5611390355       15.7416773458
  H        18.5079046688        0.5566095897       14.9686763890
  C         6.9624262221       11.3438294808        7.0377382516
  H         7.7330074021       11.3234945647        7.8009242923
  C         6.9013764401        0.6123817259       17.8476042335
  H         7.6622423447        0.6149305964       18.6203458429
  C        17.7388986254       11.3870767687       17.8176432643
  H        18.5231326997       11.3890686750       18.5666627885
  C        17.7701185005        0.5456247924        7.0165533613
  H        18.5254053419        0.5467969097        7.7948208411
  C        15.6160386125       15.7886629329       11.3820175024
  H        14.8327560776       15.0386702707       11.3800571625
  C        15.7228910945        4.9093869960        0.5428251858
  H        14.9675530101        4.1312545489        0.5415437157
  C         4.8396703433       15.7552582083        0.6068859422
  H         4.0786506787       14.9826307917        0.6045948457
  C         4.8775867832        4.9698996516       11.3902317883
  H         4.1076778444        4.2064813152       11.4087001469
  C         6.8406195708       15.7702997692       11.4349109585
  H         7.5926208530       14.9897479264       11.4450034166
  C         6.8902504384        4.9223396890        0.5499482889
  H         7.6496563268        4.1481894359        0.5453060554
  C        17.7472260837       15.7416771335        0.5611428848
  H        18.5079028639       14.9686762216        0.5566130058
  C        17.7610230734        4.9137020650       11.3651919654
  H        18.5276432233        4.1466603813       11.3655514626
  C        15.6858675162        6.9918542234       11.3632984675
  H        14.9193350162        7.7589035753       11.3630598154
  C        15.6871540895       17.8354165911        0.5733792846
  H        14.9271338049       18.6089756221        0.5781464630
  C         4.8318046677        7.0187589453        0.5617521702
  H         4.0721709490        7.7927170327        0.5660348122
  C         4.8068988402       17.8869867514       11.4166982896
  H         4.0549929282       18.6685591666       11.4086230448
  C         6.9625285316        7.0378045360       11.3438420237
  H         7.7331116176        7.8009908239       11.3235164838
  C         6.9013809305       17.8476105603        0.6123778866
  H         7.6622498066       18.6203491978        0.6149267361
  C        17.7701234319        7.0165531509        0.5456312728
  H        18.5254074695        7.7948233496        0.5468036169
  C        17.7388897761       17.8176364232       11.3870766816
  H        18.5231222544       18.5666577030       11.3890649154
 Kr        11.1755193067       11.3613001318       11.3614834326
