     409
 i =      56, E =    -5133.8794461382
  N         2.9731280628        5.2791606849       15.9672856792
  C         1.6489680443        5.5255075046       16.2323153119
  N        13.7849989974        5.0904093055        5.1214833588
  C        12.4669595975        5.3592869727        5.3969278244
  N        19.5834420530       17.5325392233       15.9798296821
  C        20.9014430928       17.2920973722       16.2738600181
  N         8.7887037296       17.5955576644        5.2502366928
  C        10.1046510011       17.2940715009        5.4961039060
  N        19.6495029191        5.1558121218        6.7231004191
  C        20.9661922159        5.4582434761        6.4810926880
  N         8.8192050461        5.2431646687       17.6164031381
  C        10.1367747437        5.4655301360       17.3043291784
  N         2.9092283426       17.5809237934        6.7863460072
  C         1.5958565604       17.2919414746        6.5118610250
  N        13.7387249237       17.5823831874       17.5933035949
  C        12.4145005993       17.3282983571       17.3378604837
  N        15.9576440648        2.9622403252        5.1294655972
  C        16.2162117350        1.6455044404        5.4132097243
  N        15.8364797381       13.8333421109       16.0117530277
  C        16.1132621179       12.5135062345       16.2702433035
  N        15.9141360017       19.7054150317       17.5560415294
  C        16.1871299016       21.0196474245       17.2734972286
  N        15.9063302131        8.8220488157        6.6730458511
  C        16.1754774861       10.1423967094        6.4158798410
  N         6.6140596496       19.7503223436        5.2301220720
  C         6.3413225406       21.0688283547        5.4919708592
  N         6.6439485429        8.9885074666       16.0674702863
  C         6.3544038526       10.3042785552       16.3306708798
  N         6.6616639778        3.1196506138       17.5546816418
  C         6.3795032788        1.8038991860       17.2930316145
  N         6.6176110259       13.8803297354        6.8289760453
  C         6.3605666723       12.5632989233        6.5398345328
  N         5.0912290105       16.0332944038        3.0902839075
  C         5.3540898970       16.3175836554        1.7744577628
  N         5.1822340001        5.3466501976       13.8597449301
  C         5.4661138887        5.6031049856       12.5430632203
  N        17.4557005422       15.9758740103       19.7042051433
  C        17.1920996460       16.2398013655       21.0248213474
  N        17.4874549050        5.1130198242        8.8507697795
  C        17.2234509110        5.3963352219       10.1668448060
  N         5.0546448220        6.7799645827       19.7281667227
  C         5.3136623950        6.4958710168       21.0446729745
  N         5.0616397321       17.6170605234        8.9471564200
  C         5.3325909900       17.3599607817       10.2675342167
  N        17.5028743508        6.6810551887        2.9859840613
  C        17.2311549086        6.4202133704        1.6670242279
  N        17.4090682454       17.5268195539       13.8433955365
  C        17.1364253810       17.2489758296       12.5286742847
  N         5.0936636431        3.0837617129        6.7794615991
  C         5.3443399575        1.7607886247        6.5085844957
  N         5.0459541406       13.9361946020       17.6217689095
  C         5.3171052501       12.6191175282       17.3467854060
  N        17.4531137025       19.6480134742        6.7450888151
  C        17.2006405930       20.9655473128        6.4589222754
  N        17.4472972943        8.8756498438       17.5125734829
  C        17.1588005345       10.1915513913       17.2550483364
  N         5.0629366500       19.8029679046       16.0517348201
  C         5.3471983157       21.1218243374       16.3036124870
  N         5.1242012460        8.9324051146        5.1758058391
  C         5.3763839506       10.2476679610        5.4743744575
  N        17.4931669635        3.0070454571       15.9676581560
  C        17.2138569103        1.6906718290       16.2391814229
  N        17.4718743934       13.7932291382        5.1750884050
  C        17.1988388424       12.4730666982        5.4304972180
  N         2.9041341198       16.0902180935       17.6247021361
  C         1.5859255964       16.3336997883       17.3334040317
  N        13.7368845677       15.9219066393        6.7155874104
  C        12.4204626002       16.2165142111        6.4626163759
  N        19.6198664858       15.9579953667        5.1976871974
  C        20.9331129854       16.2425983284        5.4774222236
  N         8.7525781282       16.0849774962       16.0838804856
  C        10.0734916234       16.3405480332       16.3473108301
  N        19.6265208625        6.7465659886       17.5129393815
  C        20.9479478555        6.4963107404       17.2447519666
  N         8.8457977673        6.7001563574        6.6823809384
  C        10.1574433760        6.3984078757        6.4188941465
  N         2.9574534850        6.8060343857        5.2392362989
  C         1.6422830968        6.5180548722        5.5006022492
  N        13.7719213170        6.6570276173       15.9207756393
  C        12.4561643704        6.4010198592       16.2117488273
  N        15.9377903620        5.1592520378       19.6660724467
  C        16.2135101428        5.4197487962       20.9833146698
  N        15.8648371448       15.9405137131        8.8914279817
  C        16.1236230823       16.2205843588       10.2106072559
  N        15.9105413455       17.5030591210        3.0323656239
  C        16.1831902292       17.2424129095        1.7137889059
  N        15.9522002154        6.7212159404       13.7983829189
  C        16.2206616110        6.4405879106       12.4820887410
  N         6.5988669662        5.1870236481        3.0317880822
  C         6.3223763160        5.4609803852        1.7177719181
  N         6.6133743214       16.1031433224       13.9163324584
  C         6.3468807723       16.3663367672       12.5972143197
  N         6.6150440839       17.6470851054       19.7813216452
  C         6.3545805905       17.3628343742       21.0984044935
  N         6.7767162607        6.8174061079        8.8896716299
  C         6.5044473422        6.5697860819       10.2117055421
  N        19.5937807007       17.5030670267        6.7633228588
  C        20.9154496878       17.2524865946        6.4986857833
  N         8.7754946044       17.6484110797       17.6313898635
  C        10.0905762745       17.3612451813       17.3578461239
  N         2.9685871630        5.2667971365        6.8102342827
  C         1.6482036866        5.5113971176        6.5251091310
  N        13.7775503099        5.1479857943       17.5215409002
  C        12.4584328744        5.4173424329       17.2572986715
  N         2.8985316195       17.6432712885       16.0658623113
  C         1.5819609696       17.3476073455       16.3160016095
  N        13.7449257382       17.5017728233        5.1841666887
  C        12.4259214027       17.2483363091        5.4635275275
  N        19.6507755382        5.1897655584       15.9576343490
  C        20.9652649108        5.4823001895       16.2274469321
  N         8.8185446900        5.1563710692        5.1165753392
  C        10.1423038002        5.3925903311        5.3937913764
  N         6.6109571641       19.8064600672       17.6172635598
  C         6.3557277349       21.1233911097       17.3268700453
  N         6.6903432956        8.9217520793        6.7215942292
  C         6.3954586174       10.2412814623        6.4868212954
  N         6.6227906665        3.0620293411        5.1966766109
  C         6.3453599375        1.7491119698        5.4783306153
  N         6.5931790379       13.9437721144       16.0577638418
  C         6.3278728156       12.6254393820       16.3267563302
  N        15.9375349558        3.0177993866       17.5236326060
  C        16.2003570325        1.6991964810       17.2569896013
  N        15.9068849599       13.7795518127        6.7222161509
  C        16.1771026423       12.4638886401        6.4402540658
  N        15.9068830175       19.6483607355        5.1807626453
  C        16.1903883613       20.9653958131        5.4380430181
  N        15.8708418497        8.8692202158       15.9769747003
  C        16.1285810280       10.1892850570       16.2539388184
  N        17.4804736542        6.7258288100       19.6689539526
  C        17.2210150139        6.4429781188       20.9862005810
  N        17.4260641126       17.4901431052        8.8934631764
  C        17.1450046999       17.2303858197       10.2097198764
  N         5.0543280949        6.7531562602        3.0437372576
  C         5.3129420251        6.4825169275        1.7243537157
  N         5.0492135272       17.6489984161       13.9061725345
  C         5.3253528066       17.3758539471       12.5898174651
  N        17.4686906020       15.9491296677        3.0248906894
  C        17.1978400847       16.2255475306        1.7077084800
  N        17.4959864155        5.1529245270       13.8076384975
  C        17.2278925348        5.4163460903       12.4882925540
  N         5.0611896011       16.0897165492       19.7765643733
  C         5.3397973662       16.3462513790       21.0945812415
  N         5.1951774349        5.2864907545        8.9104004363
  C         5.4729581445        5.5705527534       10.2233668036
  N        17.4525669559       19.6887200543       15.9839042983
  C        17.1939532929       21.0091978664       16.2493073964
  N        17.4731742985        8.8364317289        5.1302144646
  C        17.1981464809       10.1516212544        5.4075403168
  N         5.1294405515        3.1245896974       15.9768850153
  C         5.3768724148        1.8049028256       16.2646734634
  N         5.0773380265       13.8864756264        5.2582252692
  C         5.3519635058       12.5682252131        5.5174875265
  N        17.5092882623        2.9653195375        6.6898255731
  C        17.2284261061        1.6468112529        6.4324657748
  N        17.4193358240       13.8287581229       17.5399381294
  C        17.1461530303       12.5121816762       17.2684517781
  N         5.0591855067       19.7586792346        6.7876343260
  C         5.3301498565       21.0762233413        6.5122901951
  N         5.0848937355        8.9755614471       17.6201049866
  C         5.3382658214       10.2961074147       17.3461375212
  N        19.6446225668        6.7074226217        5.1618088105
  C        20.9622134100        6.4694458023        5.4607007849
  N         8.8212909581        6.7643900209       16.0286151651
  C        10.1372179558        6.4551785619       16.2636026102
  N         2.9411526662        6.8199260095       17.5378833512
  C         1.6291548614        6.5333847837       17.2558559602
  N        13.7925530684        6.6262602922        6.6966593231
  C        12.4754457375        6.3611379621        6.4254537620
  N         2.9346078245       16.0285392451        5.2280845968
  C         1.6133417202       16.2792749612        5.4935755123
  N        13.7052091823       16.0200727019       16.0433931391
  C        12.3937744077       16.3082978075       16.3266867413
  N        19.5891578899       15.9792963543       17.5385044101
  C        20.9054304502       16.2780714527       17.2912657809
  N         8.7789181723       16.0176493416        6.7831636345
  C        10.0985606528       16.2628124104        6.4961090377
  N         6.6443118764       17.5911936522        3.0977544685
  C         6.3685211176       17.3342904804        1.7791627737
  N         6.7456150701        6.8973903527       13.8576953494
  C         6.4906628472        6.6100731117       12.5391248788
  N         6.6106746899        5.2243348001       19.7242387222
  C         6.3275618556        5.4785402562       21.0406921344
  N         6.6271436312       16.0707326263        8.9604800131
  C         6.3545806723       16.3503627680       10.2760841511
  N        15.9152814891       17.5467044566       19.7178955892
  C        16.1843265168       17.2632749745       21.0329849626
  N        15.9459591439        6.6810370783        8.8411728140
  C        16.2168660330        6.4206985012       10.1606021403
  N        15.9563351602        5.1157116218        2.9784572211
  C        16.2223196853        5.3976513817        1.6626434966
  N        15.8357945001       15.9886054957       13.8545919024
  C        16.1104465206       16.2437022030       12.5339440447
 Zn        14.5384387979       14.7148614064       14.7374604373
 Br        13.2154868201       13.4031391576       13.4277066501
 Zn        14.6635580692        3.8121565828        3.8306134746
 Br        13.3496989972        2.5016182843        2.5109348683
 Zn         3.8006369792       14.7352960702        3.9456752478
 Br         2.4989749055       13.4160256047        2.6238452211
 Zn         3.8797375174        4.0210138829       14.6719860894
 Br         2.5795936620        2.7183108371       13.3315661810
 Zn         8.0027496325        8.1629101592       14.8181233909
 Br         9.5347985917        9.5994036568       13.9296327018
 Zn         7.9309360371       18.8874746545        3.9585681414
 Br         9.2531428748       20.1928522082        2.6434508119
 Zn        18.7803549910        7.9835534207        3.8493309629
 Br        20.0909892522        9.3089994622        2.5419896406
 Zn        18.7203498119       18.8161659449       14.6788151091
 Br        20.0384027847       20.1184242176       13.3565080239
 Zn         7.9088407922       14.7630675857        8.1089333502
 Br         9.2861138793       13.5151234898        9.4269859298
 Zn         7.9368865375        3.9521362348       18.8828229000
 Br         9.2293673359        2.6180647261       20.1973983746
 Zn        18.7271587557       14.6757805177       18.8240753564
 Br        20.0515169192       13.3595236722       20.1272489158
 Zn        18.7888093540        3.8346949088        7.9923915871
 Br        20.1122814841        2.5227369104        9.3019159006
 Zn        14.6381431942        7.9471378760        7.9706903687
 Br        13.3563095287        9.2636132572        9.3140353389
 Zn        14.6349818497       18.8639054021       18.8745366167
 Br        13.3470973812       20.1908115447       20.2025696332
 Zn         3.7751365543        8.0902091140       18.8755690479
 Br         2.4400027986        9.3770022858       20.1965221173
 Zn         3.7585851474       18.8905617997        8.0692354401
 Br         2.4400894763       20.2135089778        9.3729635657
 Zn        14.6016223092       14.6292312780        8.0101297148
 Br        13.2986013204       13.3039326614        9.3256256335
 Zn        14.6441244972        3.8691494266       18.8190239671
 Br        13.3218195743        2.5629681185       20.1345626517
 Zn         3.7644921596       14.8019456826       18.9230387846
 Br         2.4532604982       13.4824450989       20.2366001876
 Zn         3.8582739089        3.9941772845        8.0987977301
 Br         2.5564136424        2.6966971209        9.4415017687
 Zn         8.0523899741        8.0644692704        7.9437253615
 Br         9.5442678269        9.4637183348        8.9483123401
 Zn         7.9034849921       18.9431686745       18.9187671497
 Br         9.2276372972       20.2509432781       20.2303382579
 Zn        18.7544299868        8.0302206005       18.8037533083
 Br        20.0548324534        9.3580999492       20.1184858593
 Zn        18.7228682399       18.7845655006        8.0547463443
 Br        20.0339779280       20.1024327967        9.3700575178
 Zn        14.6223436693        7.9844110262       14.6558679822
 Br        13.3437650010        9.2967506351       13.3055552586
 Zn        14.6103784323       18.7870677418        3.8929531706
 Br        13.2996567027       20.1105762477        2.5831186435
 Zn         3.7978042858        8.0731681685        3.9111295308
 Br         2.4739836564        9.3872819226        2.6071141118
 Zn         3.7559773518       18.9381883976       14.7720064424
 Br         2.4453276039       20.2594237993       13.4594808475
 Zn         7.8942000279       14.8103715932       14.7793000804
 Br         9.2535588517       13.5407272981       13.4653180091
 Zn         7.8988245930        3.8819391965        3.8561968936
 Br         9.1628669203        2.5348075749        2.5263022927
 Zn        18.7703165561       14.6658953912        3.8936780881
 Br        20.0944725579       13.3668848469        2.5732952783
 Zn        18.7918979810        3.8735549817       14.6798987716
 Br        20.1202842665        2.5520151681       13.3851830430
 Zn         5.8950675992        6.0601046886       16.8115315624
 Zn        16.6554084317       16.7658639092       16.7760583795
 Zn        16.7193310208        5.8917946744        5.9051242722
 Zn         5.8496320858       16.8232447878        6.0229103862
 Zn         5.9001360655        6.0029828603        5.9551205826
 Zn        16.6712750344       16.7140112965        5.9577632523
 Zn         5.8327037557       16.8791522650       16.8509663737
 Zn        16.7086549460        5.9431193339       16.7277473220
  N         3.7038365722        6.0595491666       16.7576652863
  N        14.5356435252        5.8584438432        5.9067154795
  N        18.8398558780       16.7412317857       16.7471406550
  N         8.0374128111       16.8215016500        6.0277509510
  N        18.9011160576        5.9142347178        5.9272404249
  N         8.0745217464        6.0282519011       16.8432594652
  N         3.6686955803       16.8141688664        6.0091001536
  N        14.4684900211       16.7924695532       16.8111295448
  N        16.7385069784        3.7101318698        5.9029234828
  N        16.6272471593       14.5778036329       16.7790518403
  N        16.6798431065       18.9500554551       16.7743540604
  N        16.6921639506        8.0820573169        5.8973393934
  N         5.8376017114       19.0079812007        6.0131014027
  N         5.8741965470        8.2361072338       16.8470555670
  N         5.9044173353        3.8692118593       16.7603149716
  N         5.8434086337       14.6306587642        6.0496846261
  N         5.8708047187       16.8057850693        3.8408630165
  N         5.9548494306        6.1281493662       14.6063633125
  N        16.6838885006       16.7662466354       18.9641838381
  N        16.7147897061        5.8911823123        8.0987547458
  N         5.8402522330        6.0110062592       18.9799715807
  N         5.8441884988       16.8378612006        8.2074055088
  N        16.7308667338        5.8933835010        3.7285440109
  N        16.6223078021       16.7635953102       14.5955408959
  N         5.8661411752        3.8192263315        5.9848351209
  N         5.8187026872       14.6872421446       16.8421320740
  N        16.6719878150       18.9011806077        5.9703795486
  N        16.6685463964        8.1260214289       16.7388229471
  N         5.8291028904       19.0588216845       16.8439058340
  N         5.9188191818        8.1812050769        5.9321931024
  N        16.7190954307        3.7590363699       16.7449432561
  N        16.6896183135       14.5327429184        5.9553536827
  N         3.6478963051       16.8796404534       16.8557810262
  N        14.4875167046       16.7018053331        5.9434589499
  N        18.8599727699       16.7224256945        5.9769468395
  N         8.0173605526       16.8747095929       16.8592179712
  N        18.8922661229        5.9574672461       16.7352610033
  N         8.0856869306        5.9467092468        5.8958201626
  N         3.7100566866        6.0465200244        6.0290988930
  N        14.5217313654        5.9006553941       16.7163072979
  N        16.7044454438        5.9480432348       18.9200086353
  N        16.6521527291       16.7101409217        8.1455753716
  N        16.6887684537       16.7221864980        3.7751236872
  N        16.7233242878        5.9410507986       14.5491943750
  N         5.8325554514        5.9699021789        3.7842656555
  N         5.8290094084       16.8783695303       14.6586074017
  N         5.8331902643       16.8752499592       19.0324186854
  N         5.9828874305        6.0422743612        8.1527252435
  C        11.2216491014       15.7720149166       15.7909653448
  H        11.2019160979       14.9936623317       15.0186128058
  C        11.2976467889        4.8302983657        4.8411553933
  H        11.2881017374        4.0648713769        4.0557829054
  C         0.4653231198       15.7130825010        4.9338094661
  H         0.4848000430       14.9408354309        4.1553103572
  C         0.4981786261        4.9579136233       15.6775054466
  H         0.5145583760        4.1859745734       14.8988154377
  C        11.2971332002        6.9541331956       15.6669857847
  H        11.2957405790        7.7122078960       14.8753080144
  C        11.2686596461       17.8287335105        4.9383252161
  H        11.2738528999       18.6163792833        4.1751338117
  C         0.4800910572        7.0418262610        4.9295544308
  H         0.4774621095        7.8127864869        4.1494544523
  C         0.4187652044       17.8694852745       15.7452896809
  H         0.4138059510       18.6448793016       14.9696786957
  C        11.2564236708       15.6800286690        7.0181592403
  H        11.2510167846       14.8928901087        7.7817024729
  C        11.2978122509        4.9038042237       17.8426418831
  H        11.2989167138        4.1510658992       18.6401354428
  C         0.4287188966       15.7580015097       17.8636967521
  H         0.4334889836       14.9845861064       18.6412814053
  C         0.4892003424        4.9410898240        7.0584188488
  H         0.4915687869        4.1708543552        7.8390797050
  C        11.3240700697        6.9181672560        6.9813515904
  H        11.3330988397        7.6879589507        7.7619237247
  C        11.2647867042       17.8963486307       17.8951440544
  H        11.2835023465       18.6752720697       18.6669330724
  C         0.4572791959        7.0620972642       17.8018147696
  H         0.4398939984        7.8333291891       18.5815320618
  C         0.4236871029       17.8194121845        7.0577239875
  H         0.4045079814       18.5921765827        7.8357794911
  C        15.5615834422       11.3515080751       15.7226089296
  H        14.7752116051       11.3522243880       14.9581091432
  C        15.6560112190        0.4855950127        4.8733173127
  H        14.8829482620        0.4853559572        4.0953366989
  C         4.8138959925       11.4122450762        4.9469635345
  H         4.0405732285       11.4199466715        4.1692338295
  C         4.8176986220        0.6413516788       15.7294773279
  H         4.0484524592        0.6368142426       14.9478307358
  C        15.6228104766       11.2979108533        6.9739498593
  H        14.8438020557       11.2899744705        7.7459729317
  C        15.6457638231        0.5462055518       17.8171047828
  H        14.8733866133        0.5565124757       18.5958109558
  C         4.7782989929       11.4525670066       17.8964971577
  H         4.0058040086       11.4451083965       18.6750631023
  C         4.7916646792        0.6028222982        7.0637412286
  H         4.0228997215        0.6083634958        7.8458018041
  C         6.8872309099       11.4704353568       15.7768875333
  H         7.6685180214       11.4773620089       15.0079357649
  C         6.8856268214        0.5845246711        4.9287233796
  H         7.6524247304        0.5790178507        4.1445312196
  C        17.7510586101       11.3175376325        4.8723745884
  H        18.5313204961       11.3245992975        4.1017185385
  C        17.7499351059        0.5231753630       15.6907176479
  H        18.5208956781        0.5126964392       14.9108692202
  C         6.9243920779       11.3984442430        7.0654567809
  H         7.7051122715       11.3900077994        7.8350506476
  C         6.9115675873        0.6458202472       17.8648177694
  H         7.6789823409        0.6513971329       18.6483960332
  C        17.7096752682       11.3518624166       17.8031345347
  H        18.4976442639       11.3512449905       18.5659704288
  C        17.7619793619        0.4860977539        6.9977963533
  H        18.5334335234        0.4858231221        7.7773124196
  C        15.5620954502       15.6878217719       11.3744090516
  H        14.7805591472       14.9184743137       11.3776348037
  C        15.6722874214        4.8544414769        0.4999251226
  H        14.9015425403        4.0741739247        0.4948821990
  C         4.7972676249       15.7818215572        0.6112210425
  H         4.0213918629       15.0066844239        0.6060055179
  C         4.9152699033        5.0434542648       11.3889166864
  H         4.1314818598        4.2759560947       11.3981259954
  C         6.9049167654       15.8133468714       11.4420560782
  H         7.6881999537       15.0457910535       11.4511450766
  C         6.8703094216        4.9143807967        0.5562272022
  H         7.6418650017        4.1348319534        0.5518616492
  C        17.7419964043       15.6805855336        0.5416042681
  H        18.5138020389       14.9014538221        0.5344088903
  C        17.7709828505        4.8521778642       11.3312285097
  H        18.5401848822        4.0704357897       11.3364142170
  C        15.6747729385        6.9856329734       11.3175368495
  H        14.9063681679        7.7681120790       11.3117203356
  C        15.6368303801       17.8050203436        0.5579638534
  H        14.8649710764       18.5841835119        0.5649004728
  C         4.7626471151        7.0394256343        0.5675369368
  H         3.9904397282        7.8182610757        0.5720484999
  C         4.7773028461       17.9154413037       11.4233482027
  H         3.9985278115       18.6876327415       11.4150083822
  C         7.0571423281        7.1268479951       11.3695273833
  H         7.8457889363        7.8862587205       11.3572415586
  C         6.9111355661       17.8988556924        0.6220368872
  H         7.6860586779       18.6750017797        0.6276819664
  C        17.7719037663        6.9857454019        0.5094606202
  H        18.5402966219        7.7682914227        0.5136882640
  C        17.6946220813       17.7853361060       11.3669638775
  H        18.4769899128       18.5540647628       11.3637378419
 Xe         6.9397851008       10.9855684043       11.4255771508
