     409
 i =      56, E =    -5133.8697666011
  N         2.8429088671        5.2006005751       15.9846928826
  C         1.5261975205        5.4872761028       16.2419701729
  N        13.6241183579        5.1337389544        5.0996775262
  C        12.3045433010        5.3846279339        5.3861394530
  N        19.6540420225       17.6145970014       16.0363199275
  C        20.9711000978       17.3336362452       16.3013822025
  N         8.7769699338       17.5395583814        5.2070752439
  C        10.0952924855       17.2671766681        5.4729311166
  N        19.4822059435        5.2206700253        6.7752876920
  C        20.8023244677        5.4842788389        6.5086526141
  N         8.7091926402        5.1615028068       17.5643924498
  C        10.0272767290        5.4213643296       17.2860974314
  N         2.9155367093       17.5332453187        6.7800869801
  C         1.5971935015       17.2744401602        6.5047543665
  N        13.7882214284       17.6199491429       17.6060903153
  C        12.4714891805       17.3404160237       17.3390315585
  N        15.8085018017        3.0197280078        5.1808107907
  C        16.0980563421        1.7082698025        5.4589570346
  N        15.9653601242       13.9057475304       16.0375507081
  C        16.2203225783       12.5861370823       16.3111972401
  N        15.9425833199       19.7657537510       17.5859172334
  C        16.1803037979       21.0834178228       17.2906484918
  N        15.8054446705        8.8952165809        6.6728605661
  C        16.1074323996       10.2137902876        6.4380335343
  N         6.6017457984       19.6906378850        5.2135761243
  C         6.2983682119       21.0046218289        5.4630580417
  N         6.6045556749        8.8822555208       16.0103989937
  C         6.3605385132       10.2052525532       16.2869478811
  N         6.5486221966        3.0440612264       17.5752104755
  C         6.3031015534        1.7234621200       17.3041487703
  N         6.5968831067       13.8095465317        6.7326494820
  C         6.3163063422       12.4941882127        6.4569486838
  N         5.0608802185       16.0034115096        3.0437044495
  C         5.3402196733       16.2792572326        1.7289068398
  N         4.9753520620        5.1511653181       13.8413488596
  C         5.2334375916        5.4245681619       12.5218529821
  N        17.4971302612       16.0520219953       19.7465063559
  C        17.2106762201       16.3060641779       21.0634814389
  N        17.2722405412        5.2449736008        8.8837124197
  C        17.0055023081        5.5372857167       10.1970393973
  N         4.9869332882        6.7565400700       19.6968857510
  C         5.2385081248        6.4762156895       21.0162398817
  N         5.0885833924       17.5267309209        8.9211133725
  C         5.3795442441       17.2657303632       10.2355722253
  N        17.3898335906        6.6978258054        3.0190366173
  C        17.1330939189        6.4267436188        1.7009349387
  N        17.5029243596       17.6183703545       13.8763516704
  C        17.2204716271       17.3467667183       12.5609869765
  N         4.9357936702        2.9907986245        6.7079740050
  C         5.2273605976        1.6749070290        6.4506073634
  N         5.1134692412       13.8562212713       17.5825970809
  C         5.3716410306       12.5376041178       17.3070875218
  N        17.4386829359       19.7318436414        6.7550088817
  C        17.1477973575       21.0456600521        6.4847743096
  N        17.4219071332        8.9324944860       17.6289604986
  C        17.1828275063       10.2533426701       17.3455324571
  N         5.1034271045       19.7046635358       16.0153575502
  C         5.3446983078       21.0260916519       16.2879568473
  N         4.9827459844        8.8712855933        5.1647674350
  C         5.2713625302       10.1854529162        5.4358218890
  N        17.3664652334        3.0935535330       15.9434177552
  C        17.1292343629        1.7718738772       16.2277326367
  N        17.4587831722       13.8525135066        5.2166535212
  C        17.1708509675       12.5352318910        5.4699098032
  N         2.9632408856       16.0121779713       17.5747045533
  C         1.6473103139       16.2946769598       17.3098516903
  N        13.7421813684       15.9920854714        6.7540771350
  C        12.4216136513       16.2501010273        6.4808907291
  N        19.5957373853       16.0156591811        5.2052830746
  C        20.9136304203       16.2790090980        5.4783415347
  N         8.8387797419       16.0244612909       16.0589293686
  C        10.1552268795       16.3035249245       16.3290521666
  N        19.5364534470        6.7808413011       17.5333823906
  C        20.8508213280        6.5111090404       17.2534131091
  N         8.6680276732        6.6442062994        6.7162622224
  C         9.9839255099        6.3748478979        6.4361850214
  N         2.8054860681        6.7365952002        5.1980114619
  C         1.4875400072        6.4802160750        5.4790529907
  N        13.6680685517        6.7289306458       16.0200232693
  C        12.3494107132        6.4373012371       16.2678733585
  N        15.8646391465        5.1667395697       19.6959591439
  C        16.1334946695        5.4236493858       21.0146203406
  N        15.9054835468       16.0495796833        8.9316888154
  C        16.1813375657       16.3249486306       10.2483195866
  N        15.8823031612       17.5483002967        3.0594738524
  C        16.1653630012       17.2918410290        1.7425201339
  N        15.7646379559        6.8714473708       13.8398526244
  C        16.0140500592        6.5894493267       12.5183944593
  N         6.4852481437        5.1518757555        3.0120360926
  C         6.2233339553        5.4342360890        1.6968085825
  N         6.6982962461       16.0063868331       13.8747734593
  C         6.4233407630       16.2676962917       12.5545247260
  N         6.6556552644       17.5791599507       19.7421987629
  C         6.3759705789       17.3057452409       21.0579226853
  N         6.5017188579        6.6974138484        8.8724278524
  C         6.2326896162        6.4373685438       10.1925501284
  N        19.6002196398       17.5713151646        6.7615090404
  C        20.9168755215       17.2922472285        6.4963501017
  N         8.8281037426       17.5932040132       17.6017620943
  C        10.1484937089       17.3278257363       17.3364953167
  N         2.8010991973        5.1823351585        6.7562683810
  C         1.4840280142        5.4680660861        6.4985217995
  N        13.6673962800        5.1999081690       17.5991621610
  C        12.3496198280        5.4426579384       17.3041080216
  N         2.9704595796       17.5598381105       16.0121455761
  C         1.6519666896       17.3063239392       16.2904994306
  N        13.7331904807       17.5640419361        5.2157882152
  C        12.4171153621       17.2793374437        5.4786863333
  N        19.5239350563        5.2488314021       15.9552167932
  C        20.8445110241        5.5069103720       16.2265964999
  N         8.6600241158        5.1110645597        5.1392749760
  C         9.9800717788        5.3733184231        5.4071791857
  N         6.6507379804       19.7315010687       17.5787560576
  C         6.3561752775       21.0442257133       17.3075776286
  N         6.5509520954        8.8485137510        6.7063589764
  C         6.2946540299       10.1710387743        6.4438863116
  N         6.4860925136        2.9999205013        5.1469975449
  C         6.2393688351        1.6822204073        5.4314850516
  N         6.6874294514       13.8479429144       16.0459459644
  C         6.3999684873       12.5299841542       16.3041665530
  N        15.8286127248        3.0736508551       17.5156824580
  C        16.1243699243        1.7611774065       17.2538838573
  N        15.9178811260       13.8543813492        6.7862726962
  C        16.1634920434       12.5358095102        6.4935641109
  N        15.8892952470       19.7080621227        5.1929183252
  C        16.1383476433       21.0289020253        5.4631321937
  N        15.8742962417        8.9490776320       16.0672279615
  C        16.1723090002       10.2648003361       16.3246414296
  N        17.4222514242        6.7198367975       19.7111707979
  C        17.1496396324        6.4382820161       21.0245716775
  N        17.4661593116       17.5995531523        8.9189138856
  C        17.2012975157       17.3365102590       10.2388144345
  N         4.9391386188        6.7164388115        3.0167207933
  C         5.2143504916        6.4563385881        1.6976691935
  N         5.1358472018       17.5538950642       13.8711239685
  C         5.4033048725       17.2789541885       12.5550242292
  N        17.4414632834       15.9981824423        3.0603428282
  C        17.1829036866       16.2786049190        1.7430397173
  N        17.3140015531        5.3075982977       13.8324084305
  C        17.0262846934        5.5696125991       12.5172270546
  N         5.1040702829       16.0185846536       19.7290674704
  C         5.3619982913       16.2882969822       21.0484299177
  N         4.9596829301        5.1292420617        8.8831878435
  C         5.2259644280        5.4128023718       10.1993148375
  N        17.4867387119       19.7738146838       16.0189786733
  C        17.1876051780       21.0903605260       16.2666918595
  N        17.3599235583        8.8968454058        5.1186210998
  C        17.1209842721       10.2138187821        5.4202877479
  N         4.9926741188        3.0189304232       16.0191407054
  C         5.2885139845        1.7058073279       16.2877192003
  N         5.0371993357       13.8294320937        5.1817530936
  C         5.2964454487       12.5079819429        5.4454352646
  N        17.3439261911        3.0505294782        6.7568290377
  C        17.1019704655        1.7272593380        6.4861959197
  N        17.5110238677       13.8926514952       17.6016418478
  C        17.2289651926       12.5763429201       17.3330465990
  N         5.0507141453       19.6770946298        6.7724257903
  C         5.2858296400       20.9959286665        6.4815593084
  N         5.0291304741        8.9031974484       17.5450020988
  C         5.3314911464       10.2167932078       17.2893849407
  N        19.4932083044        6.7561332372        5.2010550436
  C        20.8079158024        6.4892112783        5.4827323969
  N         8.7095776422        6.6666393097       15.9614977810
  C        10.0274803924        6.4055287249       16.2406735092
  N         2.8486364201        6.7639043652       17.5336150182
  C         1.5304306076        6.5035496720       17.2571219501
  N        13.6220285691        6.6797557650        6.6634907390
  C        12.3046090010        6.3921161755        6.4101874827
  N         2.9097244572       15.9960153910        5.2066006020
  C         1.5935412649       16.2682665065        5.4798434764
  N        13.7964199543       16.0518064203       16.0645168544
  C        12.4771457870       16.3163269673       16.3319957876
  N        19.6491322070       16.0592759710       17.5935733903
  C        20.9672100938       16.3192240642       17.3185014836
  N         8.7793177520       15.9531223392        6.7305797739
  C        10.0978292656       16.2323216770        6.4692432902
  N         6.6199926402       17.5551468101        3.0599837858
  C         6.3572948544       17.2934277131        1.7394873556
  N         6.5140195915        6.7229839056       13.8321641812
  C         6.2388871843        6.4506083173       12.5150885809
  N         6.5349899884        5.1941765798       19.7050362071
  C         6.2482444801        5.4550071529       21.0195456062
  N         6.6464633298       15.9729836503        8.9084520251
  C         6.3975991588       16.2521537913       10.2298326032
  N        15.9427254343       17.6092766992       19.7458858056
  C        16.1951117186       17.3219372259       21.0630860719
  N        15.7157322060        6.8003827936        8.8659511106
  C        15.9906023365        6.5538557670       10.1887497208
  N        15.8371146501        5.1391758827        3.0058268365
  C        16.1188921487        5.4099519942        1.6916472170
  N        15.9394438166       16.0715970517       13.8918420306
  C        16.1994566147       16.3364753449       12.5709662196
 Zn        14.6671047816       14.7783108498       14.7695932793
 Br        13.3450083291       13.4982308994       13.4411088456
 Zn        14.5314948584        3.8415236575        3.8430485122
 Br        13.2519655723        2.5042721790        2.5187072618
 Zn         3.7572499381       14.7144905088        3.8945581363
 Br         2.4306707057       13.4227702307        2.5696931855
 Zn         3.6894358376        3.8672690372       14.7219134150
 Br         2.3598073253        2.5462438172       13.4297442578
 Zn         7.8375860294        7.9720246330       14.7015172762
 Br         9.1174463530        9.2750060277       13.3561449522
 Zn         7.9091580250       18.8395955359        3.9323200122
 Br         9.2230438102       20.1637003514        2.6254518763
 Zn        18.6638024146        8.0160868385        3.8594861843
 Br        19.9979819963        9.3138793243        2.5501512486
 Zn        18.7927886597       18.9110375120       14.7403249494
 Br        20.1087945686       20.2284538036       13.4293418491
 Zn         7.8983054745       14.6671858603        8.0107188795
 Br         9.1996642750       13.3417476657        9.3143336230
 Zn         7.8395011770        3.8992940411       18.8728101450
 Br         9.1566128278        2.5937598037       20.1922759107
 Zn        18.7965526601       14.7642924301       18.8886799376
 Br        20.1057396463       13.4447202329       20.2047387863
 Zn        18.5961309079        3.9470652747        8.0626078880
 Br        19.8946362388        2.6485998337        9.4073651749
 Zn        14.4556968716        8.0366118156        7.8947649310
 Br        13.0194487679        9.4760125731        8.8966113342
 Zn        14.6580700414       18.9130332457       18.8886082077
 Br        13.3413215959       20.2195372240       20.2086332872
 Zn         3.7156178181        8.0592824493       18.8242137879
 Br         2.4130129866        9.3902821647       20.1338096165
 Zn         3.7811242166       18.8150663885        8.0779775764
 Br         2.4723470727       20.1274969223        9.4000019069
 Zn        14.6358591546       14.7457773333        8.0621105385
 Br        13.3181033386       13.4740023256        9.4002660977
 Zn        14.5500268620        3.8928762766       18.8471994250
 Br        13.2534381264        2.5589216637       20.1586959813
 Zn         3.8206344955       14.7190166880       18.8702315911
 Br         2.4955195846       13.4102600662       20.1789923155
 Zn         3.6580242695        3.8495590691        8.0147837423
 Br         2.3340980323        2.5438572055        9.3294191061
 Zn         7.8107430240        7.9507804833        7.9960319330
 Br         9.1165416046        9.2520995493        9.3205902150
 Zn         7.9458678140       18.8824908798       18.8824662771
 Br         9.2426408637       20.2070494516       20.2044155396
 Zn        18.7140423356        8.0357138930       18.8844722876
 Br        20.0518462442        9.3105526665       20.2124965907
 Zn        18.7506313031       18.8847665805        8.0418170699
 Br        20.0701631447       20.2149786079        9.3353869578
 Zn        14.5186720042        8.1135497338       14.8275600526
 Br        13.0436558113        9.5939059621       13.9471394731
 Zn        14.5922705471       18.8403331081        3.9096807003
 Br        13.2661790537       20.1445413803        2.5964861677
 Zn         3.6681271871        8.0175106561        3.8920656104
 Br         2.3625746129        9.3509725414        2.5864805241
 Zn         3.8324481881       18.8372900449       14.7132752531
 Br         2.5173264604       20.1480211603       13.3942044980
 Zn         7.9781268191       14.7281860889       14.7709281266
 Br         9.2970935919       13.4234633935       13.4648694697
 Zn         7.7788658994        3.8441401909        3.8443032832
 Br         9.0824352624        2.5272898223        2.5224716392
 Zn        18.7389302647       14.7139838067        3.9172377115
 Br        20.0456926784       13.3914806048        2.6029519422
 Zn        18.6254611298        3.9967056589       14.6529313634
 Br        19.9207984809        2.6954668993       13.3058553875
 Zn         5.7745146845        5.9542004628       16.7714447589
 Zn        16.7276800079       16.8366821711       16.8218290773
 Zn        16.5536340054        5.9583774260        5.9206833847
 Zn         5.8425823046       16.7561974359        5.9871343527
 Zn         5.7287438921        5.9187947539        5.9441973135
 Zn        16.6712847695       16.7873169242        5.9956659875
 Zn         5.9014719158       16.7847524163       16.8116210457
 Zn        16.6011170364        6.0121006949       16.7874910983
  N         3.5920989693        5.9746372253       16.7643268455
  N        14.3691123774        5.9181019291        5.8731660967
  N        18.9054041521       16.8415353638       16.8176241371
  N         8.0315245211       16.7445912557        5.9683547974
  N        18.7404488267        5.9884112430        5.9824218101
  N         7.9623687057        5.9159722749       16.7640314479
  N         3.6594745380       16.7614107665        5.9937269685
  N        14.5393158986       16.8398423320       16.8345949297
  N        16.5639706204        3.7814024479        5.9662609663
  N        16.7441091320       14.6462634090       16.8189330180
  N        16.7305467684       19.0233504352       16.8148734330
  N        16.5655677520        8.1497066736        5.8788800892
  N         5.8439590515       18.9372557979        6.0042798720
  N         5.8007255698        8.1463581022       16.7712748902
  N         5.7586719074        3.7779234368       16.7981550598
  N         5.8231114729       14.5661489000        5.9605616539
  N         5.8365707551       16.7757024619        3.7986962036
  N         5.7501576209        5.9364576746       14.5831845759
  N        16.7288758643       16.8392009936       18.9998480537
  N        16.4928815696        6.0101276303        8.1275731951
  N         5.7704349231        5.9803368413       18.9540057048
  N         5.8561076706       16.7446004726        8.1686538900
  N        16.6063227555        5.9196580480        3.7585556401
  N        16.7266229282       16.8460872198       14.6308818881
  N         5.7008498331        3.7418529264        5.9209157926
  N         5.9079874287       14.5986899425       16.8184266098
  N        16.6743047108       18.9733067875        5.9741460225
  N        16.6322311504        8.1948597083       16.8548150048
  N         5.8902362308       18.9713281058       16.7959951215
  N         5.7577368894        8.1130363223        5.9342922172
  N        16.5829259700        3.8303098590       16.7250288985
  N        16.6982794743       14.5999582456        6.0105499945
  N         3.7140267598       16.7788794827       16.7897329521
  N        14.4841611119       16.7852778805        5.9881146169
  N        18.8513947377       16.7972115892        5.9815479961
  N         8.0872226269       16.8048037414       16.8287592886
  N        18.7833552316        6.0178234998       16.7478921010
  N         7.9170695958        5.8802029367        5.9298182537
  N         3.5493487831        5.9507864126        5.9703429828
  N        14.4138245333        5.9790499970       16.8226981128
  N        16.6430352529        5.9505617485       18.9569461240
  N        16.6833821518       16.8209273048        8.1789631937
  N        16.6559956622       16.7676374994        3.8072601288
  N        16.5499672425        6.0927173805       14.5831928977
  N         5.7094827825        5.9286287376        3.7612460119
  N         5.9182403000       16.7835643429       14.6198554906
  N         5.8854286404       16.7990937133       18.9892808003
  N         5.7321740005        5.9073499299        8.1311474017
  C        11.3198532933       15.7557147409       15.7858270997
  H        11.3260096000       14.9748094808       15.0158218985
  C        11.1401254531        4.8337722820        4.8426414531
  H        11.1353878292        4.0677628121        4.0578289847
  C         0.4314139479       15.7266654759        4.9262254941
  H         0.4286240735       14.9555895946        4.1462946684
  C         0.3641307929        4.9518972730       15.6799240256
  H         0.3639167404        4.1804814374       14.9004802059
  C        11.1872804531        6.9511035444       15.6866860537
  H        11.1865035167        7.7120781194       14.8977279920
  C        11.2545287899       17.8309965564        4.9349772882
  H        11.2524091458       18.6189992640        4.1722354381
  C         0.3291976530        7.0332282275        4.9295987088
  H         0.3299012083        7.8037054073        4.1489353141
  C         0.4951280519       17.8694337462       15.7456484632
  H         0.5010817722       18.6443730663       14.9695631735
  C        11.2612550237       15.6815257791        7.0141796171
  H        11.2635405140       14.8939959316        7.7774090663
  C        11.1889688843        4.8940905988       17.8561975327
  H        11.1890981916        4.1394939461       18.6519095352
  C         0.4836958527       15.7593100029       17.8662148624
  H         0.4785279281       14.9865943292       18.6444995760
  C         0.3216327108        4.9328342064        7.0598585015
  H         0.3202211155        4.1630929904        7.8409959676
  C        11.1458743149        6.9232120282        6.9810452035
  H        11.1497488950        7.6942967184        7.7603524946
  C        11.3064137850       17.8879264805       17.8829442009
  H        11.3017178282       18.6692359856       18.6525642671
  C         0.3718847621        7.0557649293       17.8066360742
  H         0.3719083591        7.8267321200       18.5868504111
  C         0.4391528368       17.8301385480        7.0537758224
  H         0.4421536051       18.6023197408        7.8326487744
  C        15.6533303768       11.4338443873       15.7634025769
  H        14.8769708306       11.4453174648       14.9895730403
  C        15.5731723715        0.5381612275        4.9065187178
  H        14.8042043998        0.5225521069        4.1244964943
  C         4.7317575891       11.3549218052        4.8942154708
  H         3.9516294316       11.3667518964        4.1235149492
  C         4.7676382018        0.5331790766       15.7369827149
  H         3.9932876518        0.5126021245       14.9605698393
  C        15.5913289503       11.3751953291        7.0197063307
  H        14.8154085405       11.3737453660        7.7942387540
  C        15.6064292809        0.5977491603       17.8262051191
  H        14.8377005805        0.5918011765       18.6086471729
  C         4.7962408689       11.3826648703       17.8412558543
  H         4.0107765097       11.3909810256       18.6065696542
  C         4.7066183293        0.5092654954        7.0166190683
  H         3.9334204996        0.4988113360        7.7944220110
  C         6.9379940263       11.3622424082       15.7545189840
  H         7.7224801477       11.3544961075       14.9881654033
  C         6.8153794682        0.5295273588        4.8935065742
  H         7.5875230678        0.5396623777        4.1146833089
  C        17.6938185919       11.3744744496        4.8941339555
  H        18.4647882397       11.3753543900        4.1142164137
  C        17.7016838626        0.6154894539       15.6908967351
  H        18.4693361903        0.6218511306       14.9077971139
  C         6.8585712382       11.3245304750        6.9961653733
  H         7.6379036711       11.3127665103        7.7677195566
  C         6.8779435934        0.5767273031       17.8572698532
  H         7.6510327997        0.5976742816       18.6349197130
  C        17.7536740009       11.4071816186       17.8907317854
  H        18.5240163195       11.3958313307       18.6712122684
  C        17.6694599460        0.5767463797        7.0402573008
  H        18.4376866590        0.5919851961        7.8227034851
  C        15.6373937935       15.7848819775       11.4164373675
  H        14.8572382768       15.0141681561       11.4275403992
  C        15.5770444711        4.8644469395        0.5266249549
  H        14.8013148634        4.0891033926        0.5163410008
  C         4.8004844942       15.7349135177        0.5616088011
  H         4.0240064574       14.9604067006        0.5502854092
  C         4.6836455409        4.8659867731       11.3650258390
  H         3.9142035707        4.0846512496       11.3714158080
  C         6.9634073783       15.7138054162       11.3898297186
  H         7.7412957352       14.9408150301       11.3861283995
  C         6.7811831183        4.8899569491        0.5390217861
  H         7.5511661621        4.1089660501        0.5404299673
  C        17.7465220533       15.7419768086        0.5834270948
  H        18.5223003543       14.9667535163        0.5840098616
  C        17.5626516070        5.0034267173       11.3597909073
  H        18.3363213223        4.2257525801       11.3641980459
  C        15.4548571344        7.1212714361       11.3507472348
  H        14.6818750481        7.8975210771       11.3434459786
  C        15.6287528484       17.8556314332        0.5828839898
  H        14.8520013720       18.6299874401        0.5831994859
  C         4.6793928053        7.0196694521        0.5360521349
  H         3.9099624980        7.8012740805        0.5343164167
  C         4.8414035262       17.8213908943       11.3977068982
  H         4.0631030583       18.5941530995       11.4016621366
  C         6.7782345618        7.0004571818       11.3493148121
  H         7.5466988510        7.7829380065       11.3425179462
  C         6.9155139160       17.8501806627        0.5858217490
  H         7.6902165839       18.6264279110        0.5970800351
  C        17.6933699278        6.9820185756        0.5492315362
  H        18.4681442791        7.7583451442        0.5593490282
  C        17.7624125762       17.8890319765       11.3931483799
  H        18.5414002015       18.6609006455       11.3823684608
 Xe        11.3066728032       11.2962974436       11.3844580762
