     409
 i =      56, E =    -5133.8852047175
  N         2.7936288879        5.2205069544       15.9941198202
  C         1.4753364635        5.4919025116       16.2602767663
  N        13.5710468559        5.1549955459        5.1664080695
  C        12.2524841680        5.4275391365        5.4334357707
  N        19.5501260655       17.5776781563       16.0240258924
  C        20.8691229566       17.3116475729       16.2938377136
  N         8.6982469254       17.5661816200        5.2117988382
  C        10.0153625008       17.2871273957        5.4761655957
  N        19.4364189779        5.1879666099        6.7553065335
  C        20.7532779205        5.4690256238        6.4906440007
  N         8.6512628611        5.2200412690       17.5520348137
  C         9.9694101328        5.4811427431       17.2764087394
  N         2.8296152818       17.5592633912        6.7661618801
  C         1.5124433256       17.2889477226        6.4946175374
  N        13.6949786168       17.5818765982       17.5957035352
  C        12.3764411141       17.3174714583       17.3244356157
  N        15.7382637291        3.0034751093        5.1882212338
  C        16.0249625736        1.6890232213        5.4588493316
  N        15.8391672773       13.8708117853       16.0286151828
  C        16.0968136207       12.5508993932       16.2950157160
  N        15.8440069254       19.7277199030       17.5827465368
  C        16.0906732917       21.0459582668       17.2955165134
  N        15.7203533475        8.8801527535        6.7342634713
  C        16.0111703210       10.1968191164        6.4802223722
  N         6.5290333354       19.7257652899        5.2144091812
  C         6.2331237770       21.0410681666        5.4685617065
  N         6.5273597430        8.9250918920       15.9953939187
  C         6.2766796916       10.2446541019       16.2757977112
  N         6.5020120726        3.0739264601       17.5736312418
  C         6.2468472549        1.7530728453       17.3060747549
  N         6.5275088380       13.8496783552        6.7520686534
  C         6.2463171248       12.5347686521        6.4771806130
  N         4.9919653221       16.0295461005        3.0465176233
  C         5.2696953894       16.3034478403        1.7311865179
  N         4.9378947123        5.2013431301       13.8475335708
  C         5.1987176295        5.4701316268       12.5276679553
  N        17.4046939986       16.0057402592       19.7392947738
  C        17.1249697459       16.2644912104       21.0578214831
  N        17.2692316099        5.1825322168        8.8899311861
  C        17.0095059245        5.4644405944       10.2065166699
  N         4.9308794225        6.7852914714       19.7032302458
  C         5.1856451033        6.5067211651       21.0226084762
  N         4.9993210073       17.5613561878        8.9151323221
  C         5.2837781997       17.3022084650       10.2317323553
  N        17.2900578911        6.7061841344        3.0316065431
  C        17.0296950675        6.4351511806        1.7127985746
  N        17.3963515237       17.5702917296       13.8706361754
  C        17.1214498916       17.2957180057       12.5545617322
  N         4.8928730243        3.0325147205        6.7239509455
  C         5.1772070991        1.7156220035        6.4622758694
  N         5.0282874441       13.8898879211       17.5778836575
  C         5.2880160228       12.5715227756       17.3026732110
  N        17.3582407975       19.7061230565        6.7493710331
  C        17.0727606302       21.0207053823        6.4777864867
  N        17.3276660385        8.8966334071       17.5808629606
  C        17.0779327937       10.2176139572       17.3083712820
  N         5.0136103098       19.7395826609       16.0195346484
  C         5.2660767922       21.0596482744       16.2918110697
  N         4.9245282201        8.9098168183        5.1799657155
  C         5.2073549862       10.2247693195        5.4526011119
  N        17.3174686736        3.0523594097       15.9771346308
  C        17.0643498868        1.7326589109       16.2542433584
  N        17.3554476908       13.8285628854        5.2307256609
  C        17.0661118921       12.5126598622        5.4897730070
  N         2.8724812229       16.0367129170       17.5771768394
  C         1.5542598258       16.3037192937       17.3081397740
  N        13.6506603178       15.9883530115        6.7610830620
  C        12.3335887201       16.2580981593        6.4875119218
  N        19.5162129682       15.9883862995        5.2151046735
  C        20.8334714887       16.2658735203        5.4803501472
  N         8.7365976188       16.0432765803       16.0332993044
  C        10.0538223906       16.3107237035       16.3064387942
  N        19.4734568571        6.7562310872       17.5563956124
  C        20.7915558695        6.4974515082       17.2784080247
  N         8.6174008420        6.7225108917        6.7202989032
  C         9.9333091974        6.4484578196        6.4488729039
  N         2.7482680498        6.7704461300        5.2000323648
  C         1.4311256400        6.4989057186        5.4747148767
  N        13.6128461910        6.7575233000       15.9927914160
  C        12.2938425041        6.4861532997       16.2569601556
  N        15.7623868861        5.1668444149       19.7029852216
  C        16.0282626853        5.4278172759       21.0234982961
  N        15.8068522605       16.0066684906        8.9249186578
  C        16.0877590162       16.2762838409       10.2406821298
  N        15.8111564021       17.5254377549        3.0553520203
  C        16.0918501471       17.2623196790        1.7388906722
  N        15.7632475352        6.7813285476       13.8460132630
  C        16.0193036697        6.5019002299       12.5275692657
  N         6.4416110766        5.1965120018        3.0222251417
  C         6.1782556848        5.4745571955        1.7055543308
  N         6.5936679269       16.0384331921       13.8700340023
  C         6.3189902026       16.3027991886       12.5518206659
  N         6.5738500850       17.5981536759       19.7399533829
  C         6.2991084652       17.3254240719       21.0567870002
  N         6.4706594231        6.7420735571        8.8800699526
  C         6.2023529870        6.4787504785       10.1991286240
  N        19.5137806450       17.5486700721        6.7666283936
  C        20.8316869087       17.2823076015        6.4953318840
  N         8.7354465105       17.6013042083       17.5872122997
  C        10.0541164297       17.3275393930       17.3211963437
  N         2.7538473597        5.2111854092        6.7537076182
  C         1.4350882478        5.4821052847        6.4896429643
  N        13.6073647496        5.2050987743       17.5517397970
  C        12.2905623229        5.4753210019       17.2775070070
  N         2.8682477239       17.5883826697       16.0177120698
  C         1.5511831792       17.3176634565       16.2909437355
  N        13.6544617347       17.5456790139        5.2078273562
  C        12.3362926647       17.2775465452        5.4758253242
  N        19.4764148426        5.2068701219       15.9948313591
  C        20.7937494685        5.4836229798       16.2609759021
  N         8.6109023729        5.1726442244        5.1602864902
  C         9.9301453667        5.4355380142        5.4309096878
  N         6.5661375726       19.7558642775       17.5790847537
  C         6.2799747474       21.0712218730       17.3093707627
  N         6.4839750412        8.8926589216        6.7315606478
  C         6.2245145516       10.2132772793        6.4667470362
  N         6.4452789301        3.0392188590        5.1651888756
  C         6.1913007030        1.7210560208        5.4451446354
  N         6.5888428203       13.8840807901       16.0262934290
  C         6.3069395146       12.5669045836       16.2901584452
  N        15.7600113930        3.0419178558       17.5313094348
  C        16.0491387252        1.7263747597       17.2704311273
  N        15.7995490838       13.8374927584        6.7862094646
  C        16.0506589806       12.5181801147        6.5057922134
  N        15.8048273779       19.6879908742        5.1910114974
  C        16.0586978115       21.0082774521        5.4606503909
  N        15.7765183403        8.9163467608       16.0199817338
  C        16.0642392957       10.2304194413       16.2906064823
  N        17.3200817735        6.7199059439       19.7176022023
  C        17.0447247177        6.4424981676       21.0325201174
  N        17.3655184874       17.5602328202        8.9140358152
  C        17.1052679797       17.2902505997       10.2333806131
  N         4.8887019753        6.7552611899        3.0237245698
  C         5.1643238606        6.4920001128        1.7050452136
  N         5.0322931236       17.5880925332       13.8690923278
  C         5.2999398857       17.3149945134       12.5519690571
  N        17.3645261744       15.9669341506        3.0598589435
  C        17.1051759975       16.2442585590        1.7406994232
  N        17.3146041169        5.2216764068       13.8425388810
  C        17.0325858384        5.4837620952       12.5260521979
  N         5.0200770562       16.0411323928       19.7317308713
  C         5.2839824929       16.3093309589       21.0504620394
  N         4.9180994783        5.1833633824        8.8893599695
  C         5.1892561402        5.4605148541       10.2057639142
  N        17.3913190876       19.7340180474       16.0188535325
  C        17.1019676177       21.0509005240       16.2755586341
  N        17.2746537902        8.8744377420        5.1779738400
  C        17.0260988583       10.1924965116        5.4638659253
  N         4.9476732824        3.0551897890       16.0169162767
  C         5.2321932749        1.7406253655       16.2895676784
  N         4.9753561598       13.8664062421        5.1917091592
  C         5.2322538042       12.5461090027        5.4598280376
  N        17.2924475684        3.0227420646        6.7452754153
  C        17.0394723158        1.7018376787        6.4756294490
  N        17.3983497388       13.8546600751       17.5804878919
  C        17.1136764527       12.5393119770       17.3094337164
  N         4.9703739539       19.7145728086        6.7668168503
  C         5.2165318480       21.0341432453        6.4832967841
  N         4.9666776347        8.9348232018       17.5464693209
  C         5.2576652810       10.2506135724       17.2881678381
  N        19.4307764546        6.7396526107        5.1962218029
  C        20.7493254274        6.4830484533        5.4734414807
  N         8.6549101783        6.7552800314       15.9755179800
  C         9.9720299005        6.4850804959       16.2491605399
  N         2.7904734285        6.7877275708       17.5388297628
  C         1.4730377454        6.5126231916       17.2710360694
  N        13.5703706662        6.7133212846        6.7202261602
  C        12.2531796215        6.4436890180        6.4489093248
  N         2.8323612545       16.0158815445        5.1993714386
  C         1.5143713295       16.2789801321        5.4735354827
  N        13.6910660779       16.0267120724       16.0396967948
  C        12.3744829411       16.3018318440       16.3089206845
  N        19.5558273085       16.0186234990       17.5782762121
  C        20.8727508785       16.2949488214       17.3088992092
  N         8.6946474991       15.9923398782        6.7492325283
  C        10.0127536244       16.2612961803        6.4815953518
  N         6.5498839247       17.5836681292        3.0591554269
  C         6.2863355758       17.3182664000        1.7390115119
  N         6.4850734213        6.7660180981       13.8357712124
  C         6.2096233822        6.4905901855       12.5201536163
  N         6.4877344730        5.2315883320       19.7101218942
  C         6.2012558366        5.4911206306       21.0259195479
  N         6.5588216346       16.0091470843        8.9117614018
  C         6.3019870231       16.2890644813       10.2301590795
  N        15.8542283343       17.5680997292       19.7412389052
  C        16.1128849166       17.2839512904       21.0581737431
  N        15.7140175097        6.7376394998        8.8877822473
  C        15.9947259272        6.4808642045       10.2060626471
  N        15.7374694160        5.1468785485        3.0224048847
  C        16.0152588295        5.4180975625        1.7057496506
  N        15.8380677618       16.0179205078       13.8809550418
  C        16.1039101844       16.2820313530       12.5617121493
 Zn        14.5463591622       14.7313120840       14.7452890972
 Br        13.2186947375       13.4265643704       13.4323562790
 Zn        14.4439917107        3.8520067731        3.8886890723
 Br        13.1339124774        2.5365751550        2.5704816746
 Zn         3.6909756775       14.7352729687        3.8957078857
 Br         2.3720227172       13.4353022906        2.5717965623
 Zn         3.6542740270        3.9058360511       14.7192152156
 Br         2.3319990075        2.5878232308       13.4160108667
 Zn         7.7926501992        8.0530769597       14.6845333613
 Br         9.1053314663        9.3583422787       13.3593095366
 Zn         7.8390652268       18.8746627484        3.9350777916
 Br         9.1569123313       20.1901375686        2.6245483089
 Zn        18.5662612184        8.0117567006        3.8904795789
 Br        19.8850695608        9.3238897281        2.5766694670
 Zn        18.6838199218       18.8708997175       14.7271503810
 Br        20.0010824599       20.1806665769       13.4104670068
 Zn         7.8330556687       14.7035123004        8.0441894448
 Br         9.1393984494       13.3739081638        9.3512215607
 Zn         7.7907205897        3.9459750556       18.8622290130
 Br         9.1060934253        2.6347143530       20.1792468775
 Zn        18.6996078866       14.7169104157       18.8701974705
 Br        20.0103556811       13.3929813659       20.1786037041
 Zn        18.5700970218        3.8938277930        8.0436552210
 Br        19.8853006180        2.5831239440        9.3615172724
 Zn        14.4189350090        8.0145419762        8.0126116059
 Br        13.0866922852        9.3265605213        9.3141527242
 Zn        14.5623636561       18.8702010923       18.8859276718
 Br        13.2538478797       20.1842887277       20.2064006701
 Zn         3.6547864572        8.0823813927       18.8274429261
 Br         2.3448475134        9.4056475706       20.1387968035
 Zn         3.6884236840       18.8422597701        8.0633479880
 Br         2.3808310251       20.1583050077        9.3836982164
 Zn        14.5083335197       14.7124809965        8.0695404056
 Br        13.1823272161       13.4131769860        9.3896007649
 Zn        14.4609001592        3.8935111696       18.8268366500
 Br        13.1463528925        2.5726840657       20.1349191847
 Zn         3.7335582606       14.7480669772       18.8712245992
 Br         2.4164915282       13.4314945381       20.1811418558
 Zn         3.6171362051        3.8984720621        8.0273053140
 Br         2.3007928664        2.5897080728        9.3469162901
 Zn         7.7745406360        8.0179097496        8.0144540411
 Br         9.0945692088        9.3271857876        9.3291529141
 Zn         7.8601368846       18.8933376983       18.8756149030
 Br         9.1731464512       20.2121665723       20.1886410389
 Zn        18.6113102045        8.0202653240       18.8740119709
 Br        19.9313079011        9.3252309173       20.1930080976
 Zn        18.6548091184       18.8537394703        8.0485993620
 Br        19.9724761206       20.1747013433        9.3524329526
 Zn        14.4802216496        8.0683455484       14.7199422461
 Br        13.1377482145        9.3856159895       13.4343972458
 Zn        14.5135679084       18.8221332642        3.9010679181
 Br        13.1997231364       20.1324810061        2.5824454735
 Zn         3.6141955521        8.0578308938        3.8982780885
 Br         2.3008691916        9.3815820870        2.5912381245
 Zn         3.7309927596       18.8758450126       14.7208025521
 Br         2.4155878621       20.1865910999       13.4037029722
 Zn         7.8864009469       14.7498728000       14.7359799714
 Br         9.1983658988       13.4300900989       13.4238586798
 Zn         7.7346128526        3.8952331669        3.8675908080
 Br         9.0419463279        2.5790226118        2.5477732147
 Zn        18.6559295708       14.6787120899        3.9387480647
 Br        19.9639673691       13.3573568090        2.6245565798
 Zn        18.6110117679        3.9265779745       14.6962354382
 Br        19.9181017119        2.6133414016       13.3722546217
 Zn         5.7250800035        6.0008241444       16.7715467894
 Zn        16.6246918880       16.7966752524       16.8143713191
 Zn        16.4980942260        5.9447492467        5.9543522719
 Zn         5.7684686911       16.7835240562        5.9870660773
 Zn         5.6782272412        5.9647445803        5.9519154469
 Zn        16.5884892471       16.7668841459        5.9940540135
 Zn         5.8028245447       16.8201757676       16.8045591883
 Zn        16.5437738898        5.9783885126       16.7753240280
  N         3.5386529467        6.0046005647       16.7673088858
  N        14.3170038432        5.9336208904        5.9445618557
  N        18.8067560304       16.7953070815       16.8008198323
  N         7.9498640279       16.7819477450        5.9817285507
  N        18.6866438701        5.9570835897        5.9714649166
  N         7.9064584889        5.9904573603       16.7647998224
  N         3.5782018033       16.7893552361        5.9821365757
  N        14.4400160936       16.8017226384       16.8183606015
  N        16.5068103079        3.7597516076        5.9665906940
  N        16.6249555552       14.6096540308       16.8056450327
  N        16.6286605966       18.9840685204       16.8091316384
  N        16.4870738293        8.1304535175        5.9479642254
  N         5.7627607575       18.9734110666        5.9986031514
  N         5.7360981332        8.1834620809       16.7646582379
  N         5.7178908654        3.8115324513       16.7938575505
  N         5.7576994667       14.6044197092        5.9733009862
  N         5.7673392358       16.8043375098        3.7995128689
  N         5.7155296014        5.9851680031       14.5882811337
  N        16.6348824188       16.7934537486       18.9939507957
  N        16.4867080140        5.9536551190        8.1418234230
  N         5.7178442373        6.0135053007       18.9597210214
  N         5.7715135343       16.7794663667        8.1669742054
  N        16.5090793501        5.9272148266        3.7734244702
  N        16.6191211126       16.7968389709       14.6229608895
  N         5.6620663946        3.7825799651        5.9402568893
  N         5.8137613452       14.6336713885       16.8049631946
  N        16.5892987485       18.9503224123        5.9705037790
  N        16.5428183148        8.1600431061       16.8009259995
  N         5.7982845911       19.0013334489       16.7981008855
  N         5.6981365018        8.1544010273        5.9541695280
  N        16.5301815100        3.7937375588       16.7505566595
  N        16.5869316262       14.5797670120        6.0136045065
  N         3.6173523817       16.8134426685       16.7964837800
  N        14.3996525577       16.7669445545        5.9860030345
  N        18.7685066478       16.7656471866        5.9928179907
  N         7.9894902288       16.8235601836       16.8081327040
  N        18.7281266266        5.9768935048       16.7791032286
  N         7.8668588981        5.9507199530        5.9405237912
  N         3.4972302425        5.9899363668        5.9735688927
  N        14.3567995883        5.9816778162       16.7750281269
  N        16.5432105926        5.9481274769       18.9633001370
  N        16.5811897140       16.7836167275        8.1730293727
  N        16.5825085836       16.7431676967        3.8044454141
  N        16.5453852922        6.0057788506       14.5910729460
  N         5.6626671270        5.9722061672        3.7695835378
  N         5.8143672012       16.8154097553       14.6165186152
  N         5.7994543314       16.8206245148       18.9890040857
  N         5.6936674472        5.9593186400        8.1379410000
  C        11.2127103871       15.7562644555       15.7583702914
  H        11.2108559283       14.9802971935       14.9832880300
  C        11.0900394023        4.8823277881        4.8818118597
  H        11.0876782131        4.1078607020        4.1053164415
  C         0.3553141889       15.7244678021        4.9253615846
  H         0.3581039587       14.9513039228        4.1475464179
  C         0.3161789060        4.9386525680       15.7105209155
  H         0.3191806498        4.1627508329       14.9354516941
  C        11.1345032955        7.0294655827       15.6978050102
  H        11.1373099110        7.7986069183       14.9160176201
  C        11.1779623623       17.8356522378        4.9296832255
  H        11.1815520468       18.6167225519        4.1597535042
  C         0.2669068729        7.0425990917        4.9264936502
  H         0.2608207963        7.8189221813        4.1518171380
  C         0.3881202097       17.8651002492       15.7437340528
  H         0.3851935599       18.6418288483       14.9694760153
  C        11.1710684072       15.7050819372        7.0295376699
  H        11.1677209640       14.9240443750        7.7994884528
  C        11.1284128883        4.9324796324       17.8306218309
  H        11.1258506649        4.1633643441       18.6125193392
  C         0.3956716151       15.7509369662       17.8593274214
  H         0.3998243705       14.9769231031       18.6363490533
  C         0.2773105653        4.9284472997        7.0421234740
  H         0.2826319891        4.1544231450        7.8190673905
  C        11.0943201836        6.9949596251        6.9995056171
  H        11.0958144264        7.7695494177        7.7760347252
  C        11.2167493836       17.8724439998       17.8722419037
  H        11.2194301396       18.6483146622       18.6473794356
  C         0.3105450941        7.0568307802       17.8223671964
  H         0.3070811506        7.8337785503       18.5964754324
  C         0.3507873093       17.8347320997        7.0456775398
  H         0.3484070451       18.6092323870        7.8222464303
  C        15.5315741021       11.3991095863       15.7422457436
  H        14.7549264039       11.4126362004       14.9679864094
  C        15.4925801681        0.5205505582        4.9094486754
  H        14.7174340564        0.5074550664        4.1336128031
  C         4.6700980879       11.3928391726        4.9065755605
  H         3.8945753073       11.4040869296        4.1310976999
  C         4.6993221881        0.5719068286       15.7411852328
  H         3.9237529452        0.5585390136       14.9657865694
  C        15.4820280851       11.3606654542        7.0436601161
  H        14.7059214372       11.3651945346        7.8184124162
  C        15.5206183340        0.5623829097       17.8329517266
  H        14.7464565372        0.5563756973       18.6097974817
  C         4.7223842975       11.4147078588       17.8440679953
  H         3.9440190450       11.4204281880       18.6166889429
  C         4.6459639348        0.5506913375        7.0214411512
  H         3.8704226667        0.5437742848        7.7968826217
  C         6.8443911377       11.4020388652       15.7363570287
  H         7.6222346122       11.3960347094       14.9631995736
  C         6.7600927137        0.5652190662        4.9053035933
  H         7.5341141666        0.5725073597        4.1283297734
  C        17.5958511117       11.3492975456        4.9270478073
  H        18.3706818663       11.3441372047        4.1508228517
  C        17.6302050064        0.5754314926       15.7125860809
  H        18.4027173657        0.5815128088       14.9340960813
  C         6.7848516783       11.3665840811        7.0216751078
  H         7.5602909121       11.3552514194        7.7971137422
  C         6.8115350715        0.6004411015       17.8586806949
  H         7.5853292637        0.6140292119       18.6357256339
  C        17.6457937329       11.3699878884       17.8580971552
  H        18.4210967979       11.3566195350       18.6336406957
  C        17.6047277951        0.5494403944        7.0273633288
  H        18.3782690967        0.5624536299        7.8046733126
  C        15.5459216504       15.7296330878       11.4062169263
  H        14.7679939358       14.9566855880       11.4142356995
  C        15.4727855032        4.8726156044        0.5393696938
  H        14.6966524779        4.0978259619        0.5308635342
  C         4.7267277857       15.7571228171        0.5661492887
  H         3.9503218898       14.9825004082        0.5586527054
  C         4.6453854678        4.9145868680       11.3711336225
  H         3.8718608474        4.1371199190       11.3777735081
  C         6.8630803304       15.7488833576       11.3902008467
  H         7.6402866013       14.9750433821       11.3888446178
  C         6.7377263818        4.9313415719        0.5471696924
  H         7.5117510743        4.1543060078        0.5498254760
  C        17.6622737002       15.7025173903        0.5791837654
  H        18.4348720252       14.9241484971        0.5790066125
  C        17.5696129663        4.9230005127       11.3654487947
  H        18.3430824617        4.1454485865       11.3641883757
  C        15.4579594340        7.0423284482       11.3675331167
  H        14.6823311700        7.8175685574       11.3682089742
  C        15.5541522086       17.8239697096        0.5786485994
  H        14.7809633503       18.6018347531        0.5788346567
  C         4.6250032486        7.0489493864        0.5423322163
  H         3.8508557390        7.8258114112        0.5395805487
  C         4.7418226131       17.8580281537       11.3926330950
  H         3.9642970582       18.6315314373       11.3938581639
  C         6.7530076615        7.0369374538       11.3552321146
  H         7.5262133144        7.8147233233       11.3484689805
  C         6.8423743399       17.8714799969        0.5824396272
  H         7.6177444580       18.6470631880        0.5894006834
  C        17.5875908309        6.9879365112        0.5578033284
  H        18.3625836030        7.7640169022        0.5660446516
  C        17.6650926387       17.8407879123       11.3889850246
  H        18.4423612051       18.6145455707       11.3810217485
 Xe        16.1193204198       11.2359505336       11.3462447986
