     409
 i =      56, E =    -5133.8850540677
  N         2.9653976504        5.2065091335       16.0366614650
  C         1.6455979839        5.4724290452       16.2995960426
  N        13.7445196371        5.1887157892        5.1887166119
  C        12.4281481537        5.4626680633        5.4626688426
  N        19.6734051931       17.5636658046       16.0082373628
  C        20.9909523108       17.3049622041       16.2892805992
  N         8.8231221569       17.5890326629        5.2284363061
  C        10.1409097665       17.3099794065        5.4892515572
  N        19.6138744094        5.1826185681        6.7373067627
  C        20.9313602758        5.4638101623        6.4793144703
  N         8.8231216356        5.2284367433       17.5890329311
  C        10.1409092502        5.4892523147       17.3099799678
  N         2.9530495947       17.5880347296        6.7664742570
  C         1.6374000872       17.3136461774        6.4896674451
  N        13.8107209282       17.5636016073       17.5636018514
  C        12.4919963229       17.2972843512       17.2972840887
  N        15.8962222837        3.0273816325        5.1828791816
  C        16.1712828860        1.7100206967        5.4512685597
  N        15.9597307876       13.8534408438       16.0053299677
  C        16.2275662519       12.5354064368       16.2750131566
  N        15.9633055098       19.7113903025       17.5583027605
  C        16.2266174313       21.0295238518       17.2849196529
  N        15.9106250041        8.8936609999        6.7388175969
  C        16.1859219186       10.2106308454        6.4696869621
  N         6.6623925716       19.7495565707        5.2301711719
  C         6.3831289664       21.0661697023        5.4967171912
  N         6.6606841376        8.9250013391       16.0246641577
  C         6.3950450959       10.2430093095       16.2963122651
  N         6.6790624140        3.0680434049       17.6010160706
  C         6.4174089045        1.7485535156       17.3301585178
  N         6.6675453701       13.8802385090        6.7655013717
  C         6.3916976135       12.5633926789        6.4991099145
  N         5.1256279473       16.0442699788        3.0602405716
  C         5.4022200260       16.3141787354        1.7440836071
  N         5.1092104274        5.2132862478       13.8839522011
  C         5.3727918927        5.4867911341       12.5655814793
  N        17.5182613130       16.0017339216       19.7148979206
  C        17.2419984585       16.2689571086       21.0322135317
  N        17.4646355118        5.1812832304        8.8890811637
  C        17.2005244035        5.4529277105       10.2076269146
  N         5.1050420862        6.7843075636       19.7435878414
  C         5.3674337073        6.5124699523       21.0625488130
  N         5.1071758933       17.5836879949        8.9283299144
  C         5.3818914967       17.3147064591       10.2455284509
  N        17.4557671548        6.7351124968        3.0313585914
  C        17.1889191079        6.4650966968        1.7133342611
  N        17.5186779944       17.5585823556       13.8503285435
  C        17.2444153908       17.2896908737       12.5329686143
  N         5.0790884557        3.0622953225        6.7779280935
  C         5.3535049162        1.7445451719        6.5097564042
  N         5.1325150194       13.8857075283       17.5933153769
  C         5.3941425652       12.5670186307       17.3195569466
  N        17.4780825817       19.7169261231        6.7323826682
  C        17.2001975695       21.0329021795        6.4635790291
  N        17.4958875174        8.8925406015       17.5664926389
  C        17.2337631397       10.2112781761       17.2932591288
  N         5.1488059061       19.7455206444       16.0403866221
  C         5.4143071839       21.0634420988       16.3121587306
  N         5.0876195510        8.9271331733        5.2264426245
  C         5.3628445887       10.2444507599        5.4932701775
  N        17.4933014734        3.0326204137       15.9951778026
  C        17.2290386842        1.7138755088       16.2657751290
  N        17.4896740035       13.8465545933        5.1896173270
  C        17.2128250905       12.5293052542        5.4565536735
  N         2.9887392412       16.0455765652       17.6004440153
  C         1.6713044925       16.3076864867       17.3231815229
  N        13.7815082071       16.0036345993        6.7524800580
  C        12.4632158517       16.2798940561        6.4900229423
  N        19.6479861367       16.0089736933        5.1883553978
  C        20.9640226715       16.2857074716        5.4623352731
  N         8.8446725095       16.0242649329       16.0242639673
  C        10.1643386202       16.2899820582       16.2899812933
  N        19.6368487677        6.7392030627       17.5699244949
  C        20.9562441299        6.4760023039       17.3034652655
  N         8.7969539553        6.7613430979        6.7613428792
  C        10.1130496331        6.4869585791        6.4869587728
  N         2.9292276975        6.7771189977        5.2218038874
  C         1.6117037453        6.4988401131        5.4831821372
  N        13.7815076742        6.7524808787       16.0036352543
  C        12.4632152907        6.4900239665       16.2798948730
  N        15.9231734004        5.1769301692       19.7087871096
  C        16.1842390000        5.4483860404       21.0282040364
  N        15.9446151676       16.0069195420        8.8979195041
  C        16.2198041963       16.2760333462       10.2145370598
  N        15.9349150815       17.5479820042        3.0274344006
  C        16.2122427173       17.2803507940        1.7106189648
  N        15.9342772832        6.7461463038       13.8504406429
  C        16.1976763044        6.4728827891       12.5321002988
  N         6.6295072596        5.2174521009        3.0647056516
  C         6.3665107207        5.4915214476        1.7469377040
  N         6.6819957991       16.0320689906       13.8805127103
  C         6.4059159925       16.3001358920       12.5638772471
  N         6.7081044881       17.5930575764       19.7487320897
  C         6.4316036624       17.3263851327       21.0663711048
  N         6.6514417857        6.7746252917        8.9250303812
  C         6.3838105544        6.5036364423       10.2426881218
  N        19.6368492328       17.5699238241        6.7392029878
  C        20.9562446172       17.3034646997        6.4760020884
  N         8.8552350285       17.5807584717       17.5807573685
  C        10.1710568964       17.3058248827       17.3058239662
  N         2.9292277763        5.2218033338        6.7771190870
  C         1.6117037842        5.4831815970        6.4988403745
  N        13.7794588612        5.1901159703       17.5527228371
  C        12.4621598787        5.4712291100       17.2925234401
  N         2.9887392610       17.6004447738       16.0455758784
  C         1.6713045170       17.3231823097       16.3076857922
  N        13.7794594706       17.5527225434        5.1901154762
  C        12.4621604383       17.2925228719        5.4712283210
  N        19.6479857285        5.1883551428       16.0089746573
  C        20.9640222822        5.4623352477       16.2857082695
  N         8.7871699147        5.2056688582        5.2056687196
  C        10.1065419597        5.4712708711        5.4712711739
  N         6.7081041578       19.7487326904       17.5930569434
  C         6.4316030116       21.0663717240       17.3263848576
  N         6.6514418870        8.9250302875        6.7746251481
  C         6.3838108046       10.2426880069        6.5036360516
  N         6.6295078128        3.0647057945        5.2174520059
  C         6.3665113190        1.7469377921        5.4915212652
  N         6.6819962946       13.8805135687       16.0320687677
  C         6.4059162720       12.5638781609       16.3001357236
  N        15.9349141105        3.0274344944       17.5479826608
  C        16.2122419066        1.7106190339       17.2803515287
  N        15.9342775419       13.8504399378        6.7461461934
  C        16.1976764452       12.5320995432        6.4728827558
  N        15.9231743049       19.7087866433        5.1769301535
  C        16.1842395083       21.0282035879        5.4483864329
  N        15.9446147873        8.8979196999       16.0069201157
  C        16.2198038576       10.2145372416       16.2760338512
  N        17.4780816817        6.7323827579       19.7169266347
  C        17.2001970435        6.4635786752       21.0329027121
  N        17.4958878434       17.5664921267        8.8925403856
  C        17.2337634066       17.2932587032       10.2112779528
  N         5.0790878977        6.7779281309        3.0622953488
  C         5.3535043357        6.5097565836        1.7445451580
  N         5.1325148255       17.5933158597       13.8857064039
  C         5.3941424842       17.3195573054       12.5670175578
  N        17.4933020758       15.9951768636        3.0326202476
  C        17.2290392961       16.2657742438        1.7138753343
  N        17.4896735708        5.1896172751       13.8465554992
  C        17.2128248178        5.4565535835       12.5293061472
  N         5.1488061606       16.0403874035       19.7455199681
  C         5.4143078156       16.3121590510       21.0634414084
  N         5.0876196281        5.2264425714        8.9271333605
  C         5.3628444575        5.4932704521       10.2444509426
  N        17.5182606313       19.7148981271       16.0017342706
  C        17.2419978215       21.0322136855       16.2689577535
  N        17.4646352162        8.8890801494        5.1812834075
  C        17.2005242792       10.2076259340        5.4529278703
  N         5.1256268735        3.0602413519       16.0442704347
  C         5.4022189783        1.7440843675       16.3141790433
  N         5.1092107937       13.8839520429        5.2132854876
  C         5.3727922509       12.5655813263        5.4867904462
  N        17.4557669620        3.0313581529        6.7351137377
  C        17.1889190652        1.7133337806        6.4650977496
  N        17.5186783604       13.8503287923       17.5585819064
  C        17.2444154644       12.5329688813       17.2896908123
  N         5.1050425621       19.7435877949        6.7843069006
  C         5.3674342879       21.0625487930        6.5124694758
  N         5.1071755235        8.9283309106       17.5836879704
  C         5.3818912548       10.2455294274       17.3147063345
  N        19.6138744027        6.7373063195        5.1826192738
  C        20.9313602609        6.4793140224        5.4638108154
  N         8.8234073728        6.7816585932       16.0303844627
  C        10.1412014587        6.5044182684       16.2936694953
  N         2.9530491132        6.7664753111       17.5880346004
  C         1.6373995909        6.4896682008       17.3136463196
  N        13.7531202186        6.7447405237        6.7447413498
  C        12.4341535474        6.4783066386        6.4783073377
  N         2.9653980684       16.0366612481        5.2065083675
  C         1.6455983722       16.2995956580        5.4724285257
  N        13.8028266035       16.0082207978       16.0082211003
  C        12.4862322779       16.2817024423       16.2817022981
  N        19.6734052831       16.0082377987       17.5636649583
  C        20.9909523218       16.2892811834       17.3049613734
  N         8.8234078976       16.0303838035        6.7816577740
  C        10.1412020021       16.2936686718        6.5044172521
  N         6.6790633455       17.6010157810        3.0680427352
  C         6.4174098698       17.3301583007        1.7485528231
  N         6.6675449588        6.7655021598       13.8802385994
  C         6.3916972011        6.4991106488       12.5633927670
  N         6.6623919849        5.2301717073       19.7495565390
  C         6.3831283230        5.4967175887       21.0661696804
  N         6.6606843757       16.0246640752        8.9250005752
  C         6.3950452113       16.2963122824       10.2430084766
  N        15.9633061925       17.5583024217       19.7113903821
  C        16.2266181068       17.2849191012       21.0295238663
  N        15.9106254914        6.7388175419        8.8936618095
  C        16.1859221793        6.4696869259       10.2106316799
  N        15.8962224037        5.1828780760        3.0273820550
  C        16.1712829009        5.4512675579        1.7100210965
  N        15.9597306818       16.0053301253       13.8534406351
  C        16.2275663459       16.2750130647       12.5354062329
 Zn        14.6634732873       14.7158508687       14.7158508051
 Br        13.3410392863       13.4052125812       13.4052124482
 Zn        14.6024522922        3.8938266358        3.8938272187
 Br        13.2822851013        2.5818104614        2.5818115572
 Zn         3.8323898633       14.7520685640        3.9100905847
 Br         2.5163198063       13.4387475827        2.5952939736
 Zn         3.8323893677        3.9100915678       14.7520686518
 Br         2.5163192913        2.5952949948       13.4387476136
 Zn         7.9546880566        8.0642470858       14.7313015589
 Br         9.2495677209        9.3805184386       13.3976057629
 Zn         7.9616380740       18.8897065470        3.9441231350
 Br         9.2784636564       20.2052771333        2.6315087027
 Zn        18.7550103754        8.0229280000        3.8897088046
 Br        20.0682595586        9.3365767562        2.5723954023
 Zn        18.8143686492       18.8508250476       14.7120379669
 Br        20.1262392641       20.1641421464       13.3935929702
 Zn         7.9546883033       14.7313013340        8.0642466195
 Br         9.2495676966       13.3976054654        9.3805181334
 Zn         7.9616375109        3.9441234664       18.8897066358
 Br         9.2784629886        2.6315091376       20.2052773629
 Zn        18.8143693375       14.7120380267       18.8508240527
 Br        20.1262401045       13.3935932469       20.1641412616
 Zn        18.7550104845        3.8897085511        8.0229290120
 Br        20.0682595834        2.5723950932        9.3365778144
 Zn        14.6181535736        8.0355671039        8.0355680239
 Br        13.3255469499        9.3604708804        9.3604713445
 Zn        14.6719834639       18.8539209575       18.8539219011
 Br        13.3659520071       20.1725465672       20.1725472031
 Zn         3.8085152322        8.0672806525       18.8758092269
 Br         2.4967220898        9.3876843657       20.1870991818
 Zn         3.8085156937       18.8758092254        8.0672798852
 Br         2.4967223620       20.1870991066        9.3876834617
 Zn        14.6507040101       14.7142786265        8.0459404486
 Br        13.3296061043       13.4059294299        9.3607964529
 Zn        14.6376497124        3.8879692436       18.8349541373
 Br        13.3221857793        2.5714815963       20.1478657095
 Zn         3.8477455462       14.7538433767       18.8881443488
 Br         2.5349388768       13.4406262404       20.2062017893
 Zn         3.7909487088        3.9337664972        8.0691778088
 Br         2.4802171504        2.6204814199        9.3896403820
 Zn         7.9487859376        8.0597754416        8.0597754328
 Br         9.3339706236        9.3381916418        9.3381920981
 Zn         8.0045234336       18.8791792229       18.8791785829
 Br         9.3261445082       20.1901336309       20.1901325643
 Zn        18.7742927075        8.0232586676       18.8686989329
 Br        20.0895609368        9.3373498097       20.1832270721
 Zn        18.7742932107       18.8686982697        8.0232586648
 Br        20.0895615178       20.1832263418        9.3373498045
 Zn        14.6507037417        8.0459407855       14.7142789419
 Br        13.3296060450        9.3607967325       13.4059295175
 Zn        14.6376511578       18.8349538529        3.8879690256
 Br        13.3221870011       20.1478651429        2.5714812557
 Zn         3.7909483762        8.0691777555        3.9337668645
 Br         2.4802166317        9.3896402232        2.6204818578
 Zn         3.8477455064       18.8881448296       14.7538423047
 Br         2.5349388098       20.2062022228       13.4406251151
 Zn         7.9701099906       14.7329087393       14.7329078248
 Br         9.2703231023       13.4109080293       13.4109073396
 Zn         7.9150818938        3.9169188921        3.9169182855
 Br         9.2235585215        2.5991871561        2.5991867653
 Zn        18.7856223973       14.7096046207        3.8997519042
 Br        20.1023518959       13.3923497159        2.5894483620
 Zn        18.7856218937        3.8997518328       14.7096053994
 Br        20.1023514870        2.5894483218       13.3923506180
 Zn         5.8923142208        6.0011001828       16.8175725424
 Zn        16.7407687203       16.7783922845       16.7783921368
 Zn        16.6737961218        5.9569794640        5.9569799722
 Zn         5.8923145558       16.8175724298        6.0010995996
 Zn         5.8577367187        5.9994155600        5.9994156058
 Zn        16.7137363248       16.7764865575        5.9590477600
 Zn         5.9229103811       16.8188003636       16.8187997329
 Zn        16.7137359207        5.9590478636       16.7764870749
  N         3.7060077869        5.9891765992       16.8150561569
  N        14.4952866236        5.9647735955        5.9647744505
  N        18.9266485201       16.7798744840       16.7798738715
  N         8.0765859995       16.8137425482        6.0089693139
  N        18.8665372998        5.9538406145        5.9538411720
  N         8.0765854808        6.0089697683       16.8137428592
  N         3.7060082289       16.8150562262        5.9891755558
  N        14.5537623168       16.7841530950       16.7841536520
  N        16.6739883676        3.7758604447        5.9593856505
  N        16.7407283803       14.5983049428       16.7817966146
  N        16.7440014889       18.9663157288       16.7818069542
  N        16.6848103315        8.1445945189        5.9593640024
  N         5.8880393777       18.9999657660        6.0087668682
  N         5.8819387916        8.1803091483       16.8037528854
  N         5.8984514217        3.8112207381       16.8229257557
  N         5.8916130648       14.6291491177        5.9878772897
  N         5.8984524210       16.8229253395        3.8112200136
  N         5.8916126839        5.9878780932       14.6291492488
  N        16.7440022121       16.7818067631       18.9663156544
  N        16.6848108342        5.9593638865        8.1445954000
  N         5.8880389016        6.0087675450       18.9999657900
  N         5.8819391420       16.8037528147        8.1803082709
  N        16.6739885680        5.9593844239        3.7758608952
  N        16.7407280076       16.7817970862       14.5983047098
  N         5.8517566834        3.8104384910        5.9959618677
  N         5.9111593795       14.6301263741       16.8141988551
  N        16.7052161482       18.9657840696        5.9538768705
  N        16.7167207879        8.1482333759       16.7877595342
  N         5.9310556142       19.0006524901       16.8153160354
  N         5.8674169598        8.1794608583        6.0013659534
  N        16.7109595357        3.7766677616       16.7707880819
  N        16.7154296066       14.5950130267        5.9695445515
  N         3.7358935203       16.8266276104       16.8266269313
  N        14.5271530775       16.7741437214        5.9662907565
  N        18.8958699190       16.7870041420        5.9612746696
  N         8.1036887090       16.8050278175       16.8050266962
  N        18.8958694924        5.9612744908       16.7870050352
  N         8.0453334900        5.9859388157        5.9859383752
  N         3.6759150998        6.0037437744        6.0037440566
  N        14.5271525248        5.9662912520       16.7741440434
  N        16.7052150239        5.9538771585       18.9657845705
  N        16.7167211543       16.7877589613        8.1482331665
  N        16.7109603542       16.7707872996        3.7766676329
  N        16.7154292015        5.9695446076       14.5950138235
  N         5.8517561273        5.9959618725        3.8104384510
  N         5.9111589463       16.8141992437       14.6301254039
  N         5.9310557258       16.8153169618       19.0006518350
  N         5.8674170584        6.0013658430        8.1794610057
  C        11.3214808212       15.7362246702       15.7362242571
  H        11.3163592714       14.9607555184       14.9607551911
  C        11.2633578373        4.9173151136        4.9173157839
  H        11.2574407794        4.1418527359        4.1418535085
  C         0.4903760299       15.7428479606        4.9179652688
  H         0.4994874817       14.9671265428        4.1427633617
  C         0.4903756528        4.9179653777       15.7428486944
  H         0.4994871216        4.1427633256       14.9671274257
  C        11.3023538215        7.0474641441       15.7378968763
  H        11.3032577144        7.8234998153       14.9629881896
  C        11.3013745265       17.8502770932        4.9298992796
  H        11.3012699347       18.6247908463        4.1532999484
  C         0.4514646042        7.0399759303        4.9244909638
  H         0.4512967449        7.8166745274        4.1501395670
  C         0.5111298234       17.8649053544       15.7494171572
  H         0.5114511177       18.6412421842       14.9747003995
  C        11.3023543426       15.7378958614        7.0474629149
  H        11.3032582504       14.9629870335        7.8234984454
  C        11.3013739606        4.9298999883       17.8502776086
  H        11.3012693661        4.1533005214       18.6247912282
  C         0.5111299096       15.7494177411       17.8649044896
  H         0.5114512271       14.9747009295       18.6412412651
  C         0.4514647007        4.9244902414        7.0399761628
  H         0.4512969846        4.1501387049        7.8166746238
  C        11.2778379100        7.0322529960        7.0322534403
  H        11.2826496848        7.8077854042        7.8077858184
  C        11.3355144593       17.8512669273       17.8512662076
  H        11.3417582211       18.6268093374       18.6268085111
  C         0.4713482363        7.0325351390       17.8583082392
  H         0.4623905921        7.8080811923       18.6337995279
  C         0.4713487450       17.8583079963        7.0325345353
  H         0.4623911584       18.6337994306        7.8080804413
  C        15.6743525475       11.3765325532       15.7253486893
  H        14.8986387760       11.3787989084       14.9499980295
  C        15.6267963340        0.5467010966        4.9012724114
  H        14.8498786273        0.5428152804        4.1271925734
  C         4.8154639695       11.4059268430        4.9427854005
  H         4.0372167737       11.4071038209        4.1700470838
  C         4.8579150282        0.5814549675       15.7640447366
  H         4.0811606952        0.5777275783       14.9896917067
  C        15.6424246028       11.3733203792        7.0211734306
  H        14.8677987472       11.3760225153        7.7975611560
  C        15.6693885314        0.5477868528       17.8319688910
  H        14.8935177968        0.5441563505       18.6071287766
  C         4.8400669760       11.4080071379       17.8685390382
  H         4.0675039714       11.4106255970       18.6469445287
  C         4.8112670350        0.5810632892        7.0612854844
  H         4.0366098585        0.5770089972        7.8376121692
  C         6.9479807587       11.4018232494       15.7461694905
  H         7.7208793076       11.3994809110       14.9680322189
  C         6.9232483340        0.5891401909        4.9431082867
  H         7.6969773491        0.5935964901        4.1657754066
  C        17.7555416208       11.3664826083        4.9043154510
  H        18.5302673248       11.3633562542        4.1280139365
  C        17.7849431105        0.5552788508       15.7173596985
  H        18.5598410086        0.5589873190       14.9412306278
  C         6.9404618837       11.4020645981        7.0482244572
  H         7.7216824253       11.4017775482        7.8177483278
  C         6.9741997664        0.5899264343       17.8779142848
  H         7.7495223843        0.5941381901       18.6535489911
  C        17.7891276464       11.3704579502       17.8408154755
  H        18.5646447559       11.3677784328       18.6162879638
  C        17.7443965519        0.5554055413        7.0140571402
  H        18.5203604465        0.5589673970        7.7891601129
  C        15.6743528408       15.7253482935       11.3765323607
  H        14.8986391103       14.9499975938       11.3787987779
  C        15.6267961142        4.9012716529        0.5467015461
  H        14.8498784195        4.1271918072        0.5428156725
  C         4.8579159461       15.7640446281        0.5814542046
  H         4.0811616805       14.9896915321        0.5777267008
  C         4.8154637357        4.9427858548       11.4059270379
  H         4.0372166066        4.1700474745       11.4071040839
  C         6.9479806044       15.7461694683       11.4018225258
  H         7.7208790318       14.9680320772       11.3994803592
  C         6.9232476783        4.9431085177        0.5891400495
  H         7.6969766458        4.1657755886        0.5935962384
  C        17.7849436467       15.7173588142        0.5552786364
  H        18.5598414410       14.9412296537        0.5589869828
  C        17.7555414925        4.9043152344       11.3664836414
  H        18.5302671185        4.1280136459       11.3633574601
  C        15.6424247127        7.0211735235       11.3733210756
  H        14.8677989516        7.7975613461       11.3760230401
  C        15.6693892841       17.8319683012        0.5477868747
  H        14.8935186049       18.6071282410        0.5441565067
  C         4.8112664401        7.0612858256        0.5810633755
  H         4.0366092612        7.8376125052        0.5770091956
  C         4.8400671019       17.8685393770       11.4080059644
  H         4.0675041574       18.6469449261       11.4106242124
  C         6.9404615022        7.0482250885       11.4020646721
  H         7.7216820399        7.8177489616       11.4017775288
  C         6.9742006639       17.8779142754        0.5899258035
  H         7.7495233291       18.6535489325        0.5941376339
  C        17.7443963674        7.0140564040        0.5554060340
  H        18.5203602981        7.7891593387        0.5589679819
  C        17.7891277061       17.8408153452       11.3704577010
  H        18.5646447166       18.6162879281       11.3677781110
 Xe         5.9315232096       10.8187279062       10.8187273094
