     409
 i =      56, E =    -5133.8736116976
  N         2.8669629948        5.2024241745       15.9980728817
  C         1.5493331947        5.4767807601       16.2619054775
  N        13.6473011315        5.1478634898        5.1491956555
  C        12.3286974481        5.4179999772        5.4200680380
  N        19.6256049053       17.5828197750       16.0271716916
  C        20.9429577241       17.3134527080       16.2975296326
  N         8.7610130061       17.5699911146        5.1947805550
  C        10.0777719893       17.2922932935        5.4633924636
  N        19.5124074621        5.1905103421        6.7549583251
  C        20.8291689973        5.4672182053        6.4895294024
  N         8.7264259687        5.1904620351       17.5710706790
  C        10.0440271912        5.4565950442       17.2952663975
  N         2.8922528132       17.5536247965        6.7638958324
  C         1.5750622344       17.2853368670        6.4923214814
  N        13.7637099282       17.5980989424       17.6016073592
  C        12.4455199569       17.3290426703       17.3322335252
  N        15.8232796796        3.0121162582        5.1798281018
  C        16.1068870713        1.6975019243        5.4491784040
  N        15.9208612720       13.8775451781       16.0389941496
  C        16.1767877598       12.5563184411       16.3075785057
  N        15.9228705991       19.7325054535       17.5817866833
  C        16.1705758376       21.0502017636       17.2960849628
  N        15.8058466795        8.8846415235        6.7128382525
  C        16.0919092699       10.2031597478        6.4579801057
  N         6.5877675116       19.7179249860        5.2055298422
  C         6.2953453457       21.0329040071        5.4632928323
  N         6.5932224354        8.9082603383       16.0110031940
  C         6.3423642739       10.2293807893       16.2885569138
  N         6.5706637325        3.0573996836       17.5765126395
  C         6.3153553023        1.7377292812       17.3075556899
  N         6.5757291473       13.8442321635        6.7353997183
  C         6.2997225257       12.5271521204        6.4642083205
  N         5.0461256583       16.0222668943        3.0431136882
  C         5.3253793305       16.2948371338        1.7282227912
  N         5.0026207050        5.1776712341       13.8471006034
  C         5.2649781318        5.4490538438       12.5283188566
  N        17.4782551551       16.0182521689       19.7372923875
  C        17.1954385650       16.2777951841       21.0542198551
  N        17.3497880619        5.1781992006        8.8902894671
  C        17.0853085129        5.4606001180       10.2060815553
  N         5.0009248152        6.7649917620       19.7051125955
  C         5.2555173926        6.4884152886       21.0244151635
  N         5.0536873249       17.5627518687        8.9148718040
  C         5.3395728229       17.3012308833       10.2308847822
  N        17.3815450051        6.7076089421        3.0284322361
  C        17.1219034371        6.4359984243        1.7099217480
  N        17.4797567563       17.5906497955       13.8676110593
  C        17.2000037129       17.3188425323       12.5519388061
  N         4.9613095946        3.0236295231        6.7240082221
  C         5.2445233464        1.7069659296        6.4612546768
  N         5.0843246322       13.8737141077       17.5891104595
  C         5.3478781619       12.5562478170       17.3134672361
  N        17.4275215804       19.7132603854        6.7363363188
  C        17.1460561613       21.0278444240        6.4651399342
  N        17.4184637929        8.9029985289       17.5970097934
  C        17.1638155392       10.2233526408       17.3243232467
  N         5.0780660473       19.7281287134       16.0226330788
  C         5.3326603186       21.0473916573       16.2935781750
  N         4.9879606398        8.8980817260        5.1708791075
  C         5.2684001752       10.2132509365        5.4430372229
  N        17.3967070777        3.0547234317       15.9792569166
  C        17.1447870374        1.7355117206       16.2567849598
  N        17.4307902094       13.8380559806        5.2061541258
  C        17.1421562973       12.5219619176        5.4659154988
  N         2.9402738052       16.0281491482       17.5807608382
  C         1.6232357764       16.2987244815       17.3121338343
  N        13.7178514999       16.0007407535        6.7510913366
  C        12.3986067524       16.2667650652        6.4782008635
  N        19.5790738685       16.0005607632        5.2022173113
  C        20.8960159223       16.2713772665        5.4726993629
  N         8.8034823725       16.0465080425       16.0489369730
  C        10.1222272558       16.3150036254       16.3182999107
  N        19.5516444026        6.7525438502       17.5510878789
  C        20.8685418684        6.4890980965       17.2750903996
  N         8.6907030898        6.7074669180        6.7135354045
  C        10.0078961366        6.4354510492        6.4411994424
  N         2.8231481935        6.7583496457        5.1970719382
  C         1.5066324337        6.4894039674        5.4721321146
  N        13.6856528726        6.7456994962       16.0131868580
  C        12.3665269901        6.4704327376       16.2753515361
  N        15.8538616764        5.1653851959       19.7032764039
  C        16.1202903915        5.4273091688       21.0227387211
  N        15.8884453858       16.0293209044        8.9201430464
  C        16.1652648765       16.3004335280       10.2372999826
  N        15.8716125015       17.5375517634        3.0472754964
  C        16.1543273013       17.2757040606        1.7312430825
  N        15.8364477870        6.7766145645       13.8496545784
  C        16.0908298161        6.4985928870       12.5289109589
  N         6.5093044677        5.1838705558        3.0242051884
  C         6.2466922906        5.4596833291        1.7075418053
  N         6.6495123105       16.0386347695       13.8723704511
  C         6.3761118903       16.3008065484       12.5522113992
  N         6.6343828072       17.5890098105       19.7401275115
  C         6.3578677691       17.3162800785       21.0559675440
  N         6.5354268537        6.7254403632        8.8807316429
  C         6.2689098478        6.4613034404       10.2007759973
  N        19.5781965520       17.5587280814        6.7560417547
  C        20.8954102378       17.2866649439        6.4887701445
  N         8.8043394896       17.6045995636       17.6010908433
  C        10.1226831945       17.3326178548       17.3323675828
  N         2.8264249069        5.2007294899        6.7515609103
  C         1.5087740062        5.4734400934        6.4876160954
  N        13.6836868413        5.1953340490       17.5727705943
  C        12.3661245534        5.4606181143       17.2970140226
  N         2.9393719335       17.5812878779       16.0229288715
  C         1.6226002927       17.3131375695       16.2955848648
  N        13.7171806167       17.5599016161        5.2001778336
  C        12.3996304857       17.2876901861        5.4676832427
  N        19.5511387682        5.2040493485       15.9891224324
  C        20.8688585736        5.4757575851       16.2573599935
  N         8.6854944682        5.1573040844        5.1539155764
  C        10.0049632809        5.4222608262        5.4230775851
  N         6.6294750626       19.7435557369       17.5830867156
  C         6.3457902190       21.0582386085       17.3117413562
  N         6.5462908336        8.8835642960        6.7226727207
  C         6.2852918683       10.2045174068        6.4574824330
  N         6.5140536974        3.0300662278        5.1654680063
  C         6.2585690267        1.7121712878        5.4440459134
  N         6.6467442650       13.8731784212       16.0415526950
  C         6.3685988536       12.5538133563       16.3027697389
  N        15.8413041800        3.0435837004       17.5344566710
  C        16.1299647259        1.7287391773       17.2731058905
  N        15.8798829607       13.8470011213        6.7662805538
  C        16.1287063896       12.5266785667        6.4841956297
  N        15.8732801708       19.6983496819        5.1799907563
  C        16.1315512976       21.0179379594        5.4486756694
  N        15.8620219710        8.9172456538       16.0426297639
  C        16.1470492654       10.2335368194       16.3095186584
  N        17.4126616132        6.7172087006       19.7158155913
  C        17.1375254170        6.4410623788       21.0306727247
  N        17.4436133539       17.5844985289        8.9105486409
  C        17.1818794079       17.3153346201       10.2299603991
  N         4.9572084828        6.7427895926        3.0232413806
  C         5.2334279640        6.4775773419        1.7055007452
  N         5.0884627464       17.5874688498       13.8687178357
  C         5.3567347960       17.3128361477       12.5519993452
  N        17.4290030991       15.9847928564        3.0523221432
  C        17.1704825291       16.2608327332        1.7341373893
  N        17.3873266148        5.2164387275       13.8423566279
  C        17.1040527640        5.4800279883       12.5265856981
  N         5.0812505856       16.0303752892       19.7304461362
  C         5.3433437276       16.2994979373       21.0488697621
  N         4.9838726352        5.1663930609        8.8903527731
  C         5.2562706006        5.4424367306       10.2065557867
  N        17.4735522419       19.7393761713       16.0208754224
  C        17.1834334300       21.0555031583       16.2776452336
  N        17.3613826674        8.8825590304        5.1582963680
  C        17.1072457338       10.2004048630        5.4418567200
  N         5.0178887299        3.0407364928       16.0183995778
  C         5.3015649981        1.7264635581       16.2902687584
  N         5.0241735072       13.8537355648        5.1770970869
  C         5.2853718590       12.5345617844        5.4471186321
  N        17.3759765548        3.0271944053        6.7385253470
  C        17.1207074831        1.7074760342        6.4665734599
  N        17.4793332616       13.8613771868       17.5902660394
  C        17.1944030190       12.5459338488       17.3212749001
  N         5.0307857883       19.7068201856        6.7600514584
  C         5.2797194356       21.0261237847        6.4789004728
  N         5.0308439125        8.9196205931       17.5585468283
  C         5.3216426091       10.2351187456       17.2993383932
  N        19.5101895311        6.7414782157        5.1961038811
  C        20.8273684605        6.4807634855        5.4721691986
  N         8.7246211407        6.7231907551       15.9935258583
  C        10.0435292350        6.4593451205       16.2666526133
  N         2.8651168572        6.7688962653       17.5432288673
  C         1.5481943794        6.4970257898       17.2729735632
  N        13.6482005096        6.7049012167        6.7035338482
  C        12.3299129492        6.4338002928        6.4360195555
  N         2.8926191139       16.0104852894        5.1968744574
  C         1.5755118377       16.2757914178        5.4709466553
  N        13.7632941763       16.0422929100       16.0484091005
  C        12.4448733049       16.3123145635       16.3177398644
  N        19.6266868030       16.0249994527       17.5825042409
  C        20.9436491249       16.2973022755       17.3130135724
  N         8.7547944372       15.9948565096        6.7302096829
  C        10.0747574578       16.2651593521        6.4677816383
  N         6.6038672484       17.5767831138        3.0553438220
  C         6.3416354794       17.3099106613        1.7361351731
  N         6.5482340301        6.7417429808       13.8410616974
  C         6.2754419439        6.4700113223       12.5234233699
  N         6.5547272163        5.2083965104       19.7142801132
  C         6.2695533072        5.4713576663       21.0292749999
  N         6.6123337020       16.0112696814        8.9068873197
  C         6.3579714161       16.2881279806       10.2275909039
  N        15.9260999073       17.5778950376       19.7353341647
  C        16.1814682652       17.2951623550       21.0523715971
  N        15.7951775406        6.7340412467        8.8831586274
  C        16.0706393485        6.4774431936       10.2038142783
  N        15.8266538435        5.1508350831        3.0188962493
  C        16.1062554900        5.4203364499        1.7030210221
  N        15.9201601403       16.0405053116       13.8809526261
  C        16.1816285466       16.3058879326       12.5601377700
 Zn        14.6385201396       14.7631784211       14.7640664999
 Br        13.3204500963       13.4604259237       13.4524286215
 Zn        14.5315440828        3.8523585591        3.8742786966
 Br        13.2282758421        2.5328459840        2.5536067950
 Zn         3.7412473673       14.7274434159        3.8893966100
 Br         2.4213060006       13.4307455688        2.5639458074
 Zn         3.7221494451        3.8894886751       14.7204713682
 Br         2.3979238488        2.5675077768       13.4232402079
 Zn         7.8464825148        8.0097434003       14.7150789689
 Br         9.1529736455        9.3079616631       13.3917298107
 Zn         7.8950575807       18.8730581640        3.9168756449
 Br         9.2093145965       20.1904290530        2.6063160847
 Zn        18.6610176554        8.0141580681        3.8840645814
 Br        19.9806563130        9.3239194931        2.5696049900
 Zn        18.7717931768       18.8798594040       14.7291139059
 Br        20.0873614655       20.1945980428       13.4167710639
 Zn         7.8681748435       14.7159408963        8.0104130635
 Br         9.1719196529       13.3920823048        9.3103007097
 Zn         7.8559590793        3.9155500391       18.8742959225
 Br         9.1726659040        2.6068370495       20.1915376714
 Zn        18.7730114119       14.7238426743       18.8773778157
 Br        20.0873115979       13.4087638035       20.1907067764
 Zn        18.6554733364        3.8932317781        8.0423779491
 Br        19.9693111515        2.5818030413        9.3591276265
 Zn        14.5123376685        8.0019550312        7.9819743536
 Br        13.1937491895        9.3187861714        9.2730816218
 Zn        14.6390144679       18.8816767452       18.8858722054
 Br        13.3301970332       20.1971765359       20.2053485617
 Zn         3.7238616121        8.0640941998       18.8344896303
 Br         2.4139891406        9.3843080807       20.1488400573
 Zn         3.7467682103       18.8409627400        8.0603621615
 Br         2.4383644615       20.1584798724        9.3780404334
 Zn        14.6069887710       14.7395118446        8.0504683049
 Br        13.2976950814       13.4446839702        9.3729791223
 Zn        14.5509906756        3.8885968583       18.8383073339
 Br        13.2398786358        2.5667809395       20.1493202882
 Zn         3.7907309131       14.7321637602       18.8760862982
 Br         2.4717046736       13.4225606564       20.1895025521
 Zn         3.6806717120        3.8877551550        8.0263476802
 Br         2.3659453142        2.5757950707        9.3437891637
 Zn         7.8285462812        7.9974500846        8.0005575242
 Br         9.1477967097        9.2985877941        9.3094950859
 Zn         7.9241454431       18.8902109871       18.8839821806
 Br         9.2274146122       20.2126076655       20.2021602788
 Zn        18.7079344492        8.0184072592       18.8762759989
 Br        20.0306236287        9.3176093347       20.1973437413
 Zn        18.7247227276       18.8734222853        8.0338964433
 Br        20.0482099683       20.1932892865        9.3335999665
 Zn        14.5672829588        8.0545475520       14.7608946757
 Br        13.2498357446        9.3897934185       13.4884235520
 Zn        14.5765637917       18.8330504094        3.8953084596
 Br        13.2628096491       20.1436315980        2.5763814602
 Zn         3.6786217827        8.0465739212        3.8924224566
 Br         2.3657895552        9.3658605172        2.5818385168
 Zn         3.7904149870       18.8727687874       14.7232787154
 Br         2.4733590618       20.1846516591       13.4101637005
 Zn         7.9291943721       14.7639033530       14.7662959655
 Br         9.2429515439       13.4547470972       13.4612834569
 Zn         7.8012766268        3.8838281940        3.8645752161
 Br         9.1083987613        2.5645674905        2.5465342209
 Zn        18.7227625878       14.6998658531        3.9133745959
 Br        20.0341232466       13.3783447168        2.6026801095
 Zn        18.6840571008        3.9226723738       14.6908748806
 Br        19.9930467136        2.6105102964       13.3681455875
 Zn         5.7898508294        5.9748366072       16.7778955048
 Zn        16.7093701343       16.8126432712       16.8150123536
 Zn        16.5784163894        5.9464005372        5.9489827726
 Zn         5.8247972744       16.7815530121        5.9713713763
 Zn         5.7445217079        5.9537636011        5.9504310827
 Zn        16.6570796901       16.7759994909        5.9814959796
 Zn         5.8680388811       16.8151442330       16.8131773904
 Zn        16.6178869306        5.9771420354       16.7797980868
  N         3.6124571411        5.9845943096       16.7725415494
  N        14.3940108937        5.9271131335        5.9259309358
  N        18.8802260806       16.8030077951       16.8044383271
  N         8.0114442973       16.7839808308        5.9614845498
  N        18.7640691181        5.9613450155        5.9716776514
  N         7.9789204373        5.9570087063       16.7830200262
  N         3.6395228884       16.7830217242        5.9795221097
  N        14.5107908546       16.8199300441       16.8247902484
  N        16.5920639457        3.7662594773        5.9598010429
  N        16.7071186288       14.6164702905       16.8146421100
  N        16.7090818303       18.9895862294       16.8093257200
  N        16.5757153477        8.1368891455        5.9286586459
  N         5.8207006212       18.9657246968        5.9891036498
  N         5.8012276270        8.1672739907       16.7792314075
  N         5.7873826778        3.7957137434       16.7968538988
  N         5.8042608273       14.5956090037        5.9565814771
  N         5.8207950152       16.7981194675        3.7955505495
  N         5.7786376742        5.9595906518       14.5907464304
  N        16.7091955227       16.8044166290       18.9899946918
  N        16.5697441140        5.9497734668        8.1399702012
  N         5.7860467173        5.9904322823       18.9627884710
  N         5.8246515327       16.7824086505        8.1641557592
  N        16.5986915063        5.9304023394        3.7701720124
  N        16.7043615865       16.8169575966       14.6212266047
  N         5.7313277359        3.7734872400        5.9409135258
  N         5.8691154827       14.6203553991       16.8188132777
  N        16.6560587138       18.9588679260        5.9591599267
  N        16.6325012842        8.1637386749       16.8207918687
  N         5.8609091334       18.9895846332       16.8025345997
  N         5.7619803058        8.1439936231        5.9454765981
  N        16.6099976807        3.7958391539       16.7531074285
  N        16.6651471566       14.5888391487        5.9919439031
  N         3.6867806286       16.8040823543       16.8008433114
  N        14.4643225859       16.7820329766        5.9770882358
  N        18.8322988980       16.7800929444        5.9784338443
  N         8.0574253510       16.8259210073       16.8243920133
  N        18.8043713808        5.9761685223       16.7727826092
  N         7.9409590537        5.9344712285        5.9345131071
  N         3.5710125292        5.9776464210        5.9709658719
  N        14.4312081908        5.9733637352       16.7964565432
  N        16.6347295301        5.9455177550       18.9626104708
  N        16.6622878678       16.8061078725        8.1687775916
  N        16.6445017762       16.7577880570        3.7967821164
  N        16.6191606482        5.9999816731       14.5923893605
  N         5.7305557131        5.9605402240        3.7704653972
  N         5.8701209680       16.8160643541       14.6175242640
  N         5.8612438668       16.8104332256       18.9889213001
  N         5.7582112084        5.9431752496        8.1388849163
  C        11.2828477608       15.7632502292       15.7694729178
  H        11.2817533895       14.9867359648       14.9950210273
  C        11.1651729974        4.8711641382        4.8716542470
  H        11.1622291602        4.0967430993        4.0951010608
  C         0.4163659966       15.7249699699        4.9202919406
  H         0.4178452092       14.9520856251        4.1421710621
  C         0.3902378059        4.9266727833       15.7093295546
  H         0.3929161167        4.1503916350       14.9346571644
  C        11.2045610190        7.0078063561       15.7149642746
  H        11.2038717441        7.7759776114       14.9322814024
  C        11.2407037131       17.8436388504        4.9204486071
  H        11.2441464401       18.6254080026        4.1512884239
  C         0.3450601728        7.0365392027        4.9232448733
  H         0.3414356377        7.8117619649        4.1474452909
  C         0.4624337861       17.8642215081       15.7473102491
  H         0.4621869199       18.6409661921       14.9729890341
  C        11.2347686291       15.7111001216        7.0169844292
  H        11.2315680409       14.9290329096        7.7857568955
  C        11.2055736530        4.9137470494       17.8501644732
  H        11.2065512298        4.1455619345       18.6328791531
  C         0.4639886422       15.7491883807       17.8638849199
  H         0.4653253942       14.9754155830       18.6411629811
  C         0.3507618308        4.9224199906        7.0410318843
  H         0.3537713874        4.1480965302        7.8177242351
  C        11.1704567850        6.9827720913        6.9891077587
  H        11.1730315298        7.7571845162        7.7656170542
  C        11.2849148882       17.8809947510       17.8810533289
  H        11.2866885628       18.6575593301       18.6554271212
  C         0.3871276628        7.0446291789       17.8226212316
  H         0.3844078838        7.8205954052       18.5977840868
  C         0.4148233615       17.8343063033        7.0425720926
  H         0.4137269391       18.6082938740        7.8196778723
  C        15.6121443858       11.4014181149       15.7595655692
  H        14.8354374675       11.4110915220       14.9853959524
  C        15.5700630474        0.5320474217        4.8978829510
  H        14.7951181576        0.5231370204        4.1217691892
  C         4.7272976236       11.3788077259        4.8954507685
  H         3.9518170315       11.3859430492        4.1199366360
  C         4.7674881838        0.5591145613       15.7412934145
  H         3.9922723535        0.5466085211       14.9655391217
  C        15.5617533590       11.3673351654        7.0213421674
  H        14.7873659212       11.3705633794        7.7978254550
  C        15.6003701205        0.5654187376       17.8349461446
  H        14.8261203210        0.5590577706       18.6117896824
  C         4.7836370262       11.3984986642       17.8539956092
  H         4.0041969262       11.4027762491       18.6255297807
  C         4.7116211210        0.5425190009        7.0194253525
  H         3.9365731777        0.5358768341        7.7953620269
  C         6.9088272594       11.3887773214       15.7501579139
  H         7.6879146034       11.3845231556       14.9783873082
  C         6.8250760828        0.5564828138        4.9019756899
  H         7.5989467661        0.5631064316        4.1248141358
  C        17.6732787001       11.3586998854        4.9037135382
  H        18.4478948279       11.3548982049        4.1273300729
  C        17.7122204165        0.5795462067       15.7152053745
  H        18.4856971225        0.5861486024       14.9377177960
  C         6.8419883807       11.3609104184        7.0105895361
  H         7.6174767546       11.3537658757        7.7860003729
  C         6.8791758448        0.5858890890       17.8612098484
  H         7.6525301923        0.5986516718       18.6388013888
  C        17.7295899781       11.3782716988       17.8710860270
  H        18.5062085340       11.3685158850       18.6453647875
  C        17.6827632384        0.5532080477        7.0165616885
  H        18.4566011735        0.5616243282        7.7937053910
  C        15.6228938320       15.7547519155       11.4037635853
  H        14.8456271477       14.9811223882       11.4116507716
  C        15.5635439771        4.8734837931        0.5379983614
  H        14.7868077648        4.0992255854        0.5301526464
  C         4.7841471137       15.7473310899        0.5633519667
  H         4.0078892735       14.9725749137        0.5550913212
  C         4.7126036101        4.8945747428       11.3710131683
  H         3.9397179398        4.1164655775       11.3764159298
  C         6.9193410599       15.7478867942       11.3886349795
  H         7.6969821358       14.9746498248       11.3867133490
  C         6.8060290780        4.9131924636        0.5508928180
  H         7.5792318748        4.1352733106        0.5550740271
  C        17.7322177603       15.7182941459        0.5760013885
  H        18.5069415856       14.9419795038        0.5789982698
  C        17.6425709567        4.9195708825       11.3664703919
  H        18.4165128089        4.1424388959       11.3668254863
  C        15.5320913007        7.0383271991       11.3661368339
  H        14.7582459472        7.8153110912       11.3650645681
  C        15.6176123041       17.8353684714        0.5700784553
  H        14.8424566421       18.6112859959        0.5672600040
  C         4.6947943618        7.0333869133        0.5423911990
  H         3.9210036564        7.8105588724        0.5380632725
  C         4.7982115797       17.8557640040       11.3927173125
  H         4.0204139471       18.6289582656       11.3947523679
  C         6.8187859802        7.0181211700       11.3586089269
  H         7.5915252912        7.7962701800       11.3534730640
  C         6.8995139625       17.8634095901        0.5812114159
  H         7.6743043166       18.6396334339        0.5894282744
  C        17.6810726182        6.9872940680        0.5550181819
  H        18.4566930933        7.7627320271        0.5623064599
  C        17.7416453764       17.8654050308       11.3859603598
  H        18.5188024133       18.6391988993       11.3782729803
 Xe        11.2253185904       11.3811624968       11.3817025887
