     409
 i =      56, E =    -5133.8843435028
  N         2.7740526256        5.2323629630       16.0301238877
  C         1.4554932759        5.4954655987       16.3005496902
  N        13.5913944240        5.2010221648        5.2196444023
  C        12.2744886863        5.4779013613        5.4864037955
  N        19.4847728370       17.5768749595       16.0317494004
  C        20.8038388497       17.3151089638       16.3039664235
  N         8.6743389124       17.6017206616        5.2182603685
  C         9.9914489319       17.3243392980        5.4854081237
  N        19.4592935951        5.1997322278        6.7659140894
  C        20.7757373384        5.4790452012        6.4995278396
  N         8.6337229299        5.2257713858       17.5910537991
  C         9.9522024838        5.4888362979       17.3194814535
  N         2.8043595386       17.6064257399        6.7637277723
  C         1.4874244295       17.3323731454        6.4928514171
  N        13.6315239137       17.5704362253       17.5896559538
  C        12.3129746181       17.3082964440       17.3169561349
  N        15.7450395218        3.0397704278        5.2217900381
  C        16.0215822333        1.7228798583        5.4896362965
  N        15.7787675281       13.8614118223       16.0278699713
  C        16.0442834495       12.5429456419       16.2970131098
  N        15.7772857550       19.7213510939       17.5901858898
  C        16.0358974799       21.0400867059       17.3159089885
  N        15.7437354881        8.9060123024        6.7536193546
  C        16.0149841885       10.2224603573        6.4806491903
  N         6.5153829295       19.7644189640        5.2170764392
  C         6.2347385645       21.0815095655        5.4817846230
  N         6.4880289944        8.9358075998       16.0313168355
  C         6.2231536665       10.2546865890       16.3013089129
  N         6.4776007438        3.0808285630       17.5934399190
  C         6.2154422051        1.7621053813       17.3214142717
  N         6.5093648218       13.8947031790        6.7664675281
  C         6.2348757386       12.5776449379        6.4971156948
  N         4.9683073463       16.0570707614        3.0575261803
  C         5.2394039667       16.3275543196        1.7405572677
  N         4.9263232608        5.2305992692       13.8794818985
  C         5.1964326341        5.5007980782       12.5618658427
  N        17.3391716449       16.0060438576       19.7421020194
  C        17.0707422827       16.2762315461       21.0603267165
  N        17.3077556493        5.1971575236        8.9224271229
  C        17.0291731167        5.4593240628       10.2400218148
  N         4.9196505569        6.7914691040       19.7424666748
  C         5.1901062048        6.5231466711       21.0606409426
  N         4.9597273452       17.6046977101        8.9218104578
  C         5.2308258635       17.3361772007       10.2394059609
  N        17.2972717356        6.7457887838        3.0590831007
  C        17.0256747395        6.4750223599        1.7420884924
  N        17.3361680359       17.5704374710       13.8780667189
  C        17.0696034439       17.2975848718       12.5602399301
  N         4.9256713734        3.0760530638        6.7628266666
  C         5.2016654321        1.7592487794        6.4928527103
  N         4.9574780544       13.8990504335       17.5902204275
  C         5.2201802722       12.5803873983       17.3182596837
  N        17.3280019577       19.7288512820        6.7691844297
  C        17.0510468972       21.0455499202        6.5015586556
  N        17.3061029529        8.8997371197       17.5881655865
  C        17.0452683798       10.2181667781       17.3145288544
  N         4.9573110053       19.7566337922       16.0297421526
  C         5.2180972434       21.0756416752       16.3024656351
  N         4.9314370158        8.9418146367        5.2177801245
  C         5.2084130270       10.2589316755        5.4847743501
  N        17.2996356804        3.0444005581       16.0285534538
  C        17.0342985174        1.7257480401       16.2973916537
  N        17.3366023541       13.8574209359        5.2198650853
  C        17.0545684879       12.5403047891        5.4809921459
  N         2.8091269855       16.0539251455       17.5938261513
  C         1.4903479161       16.3164021504       17.3224298562
  N        13.6263265897       16.0211338623        6.7687155160
  C        12.3095313609       16.2966213188        6.4990016096
  N        19.4929429192       16.0215063645        5.2152710427
  C        20.8097784165       16.3020562892        5.4803986553
  N         8.6680250902       16.0438265622       16.0289755374
  C         9.9870402425       16.3073655733       16.2994760860
  N        19.4510950097        6.7507717424       17.5931523817
  C        20.7698302955        6.4919830165       17.3193041954
  N         8.6395641755        6.7790115188        6.7676718386
  C         9.9564745422        6.5046064140        6.4987028862
  N         2.7692305859        6.7894456089        5.2214756438
  C         1.4524136583        6.5122166216        5.4889957047
  N        13.5950298342        6.7591005088       16.0329605785
  C        12.2766741249        6.4936380206       16.3032396975
  N        15.7404463108        5.1898703853       19.7428453124
  C        16.0098144439        5.4597053002       21.0610062883
  N        15.7849538304       16.0108465830        8.9213567704
  C        16.0564145171       16.2794562229       10.2389695149
  N        15.7882828137       17.5665216889        3.0584382356
  C        16.0585422760       17.2948007348        1.7414078764
  N        15.7413584162        6.7436392747       13.8786497688
  C        16.0083856760        6.4698066542       12.5610286033
  N         6.4784919490        5.2392520064        3.0587333271
  C         6.2071330639        5.5096634996        1.7417173866
  N         6.5137977790       16.0485755881       13.8776361348
  C         6.2455536704       16.3196838839       12.5600068724
  N         6.5243594810       17.6103934225       19.7410951095
  C         6.2554247032       17.3414995217       21.0594546499
  N         6.4868675937        6.7824296047        8.9232506897
  C         6.2150242620        6.5140551285       10.2408981977
  N        19.4867909557       17.5806073334        6.7681660312
  C        20.8056603848       17.3188581731        6.4951240160
  N         8.6744611300       17.6015905280       17.5830843634
  C         9.9913250066       17.3237680749       17.3145915601
  N         2.7745474164        5.2323168463        6.7750311115
  C         1.4562258188        5.4959592330        6.5039744500
  N        13.5898096892        5.1994953753       17.5857362274
  C        12.2730979749        5.4763216437       17.3174230640
  N         2.8027599479       17.6060315231       16.0347225773
  C         1.4858788865       17.3305845003       16.3053336450
  N        13.6315826681       17.5734349673        5.2085778664
  C        12.3130773355       17.3105916810        5.4815146960
  N        19.4583593844        5.1964336290       16.0368401381
  C        20.7747721181        5.4767048656       16.3034230035
  N         8.6352544719        5.2265506076        5.2096365036
  C         9.9535802872        5.4901235292        5.4820132609
  N         6.5148540438       19.7634605637       17.5843390768
  C         6.2344318443       21.0802941620       17.3176741767
  N         6.4903268757        8.9374264149        6.7709455064
  C         6.2253087682       10.2559880613        6.4993938863
  N         6.4801093903        3.0819731988        5.2047698827
  C         6.2167256910        1.7633214712        5.4764384034
  N         6.5099332907       13.8935027265       16.0314646660
  C         6.2344279410       12.5765584228       16.3011988631
  N        15.7420159690        3.0376282123       17.5831307272
  C        16.0183259383        1.7210704667       17.3129212513
  N        15.7695391667       13.8609657846        6.7635565582
  C        16.0308847912       12.5428585225        6.4885934476
  N        15.7772066384       19.7233325848        5.2096273320
  C        16.0373700829       21.0418753903        5.4841326498
  N        15.7554014142        8.9051069012       16.0278529248
  C        16.0321402248       10.2218966487       16.2964612683
  N        17.2960861136        6.7463630613       19.7437126526
  C        17.0254874502        6.4754848922       21.0610453718
  N        17.3373540412       17.5700886717        8.9215056945
  C        17.0702466776       17.2970147747       10.2391044879
  N         4.9198928418        6.7919414861        3.0611558541
  C         5.1898512814        6.5237112103        1.7426316811
  N         4.9595628892       17.6042855306       13.8776825084
  C         5.2306838190       17.3360037199       12.5600139453
  N        17.3391116992       16.0060242375        3.0610002699
  C        17.0709558606       16.2758657425        1.7424105570
  N        17.3057504131        5.1962329769       13.8795499233
  C        17.0306118616        5.4606500155       12.5615661739
  N         4.9676200524       16.0560289900       19.7431324002
  C         5.2388512286       16.3267395889       21.0601334777
  N         4.9284249897        5.2292660636        8.9231299130
  C         5.1974618778        5.5002395878       10.2407572280
  N        17.3280341815       19.7282136114       16.0308923666
  C        17.0493868679       21.0447603908       16.2983398407
  N        17.3087028764        8.9010929404        5.2077272693
  C        17.0387635519       10.2194366224        5.4739189161
  N         4.9232670130        3.0745016350       16.0357225063
  C         5.2004050887        1.7576385493       16.3050420188
  N         4.9564370627       13.8991339673        5.2080336227
  C         5.2202347698       12.5805927680        5.4803987102
  N        17.3039943830        3.0446491173        6.7744528496
  C        17.0383333263        1.7263426754        6.5042655606
  N        17.3348993376       13.8559041463       17.5833559217
  C        17.0595072807       12.5391320792       17.3131827390
  N         4.9575007541       19.7587646890        6.7705092057
  C         5.2181203181       21.0775426167        6.4966261571
  N         4.9299049327        8.9419888543       17.5857607987
  C         5.2068331002       10.2587821587       17.3165590998
  N        19.4532026451        6.7531536738        5.2082339715
  C        20.7716445912        6.4937665967        5.4830569646
  N         8.6388724068        6.7792440308       16.0344976398
  C         9.9556883501        6.5040213404       16.3035740737
  N         2.7672622624        6.7895075513       17.5844443875
  C         1.4507100174        6.5117367749       17.3156075673
  N        13.5953693209        6.7596893223        6.7728418268
  C        12.2773459789        6.4946868222        6.5010762771
  N         2.8099503877       16.0548421999        5.2038934859
  C         1.4913309382       16.3184640290        5.4754175463
  N        13.6259499166       16.0169233244       16.0309747634
  C        12.3090224334       16.2936617252       16.3001799727
  N        19.4919237007       16.0177507331       17.5854063663
  C        20.8086391016       16.2983140397       17.3188144339
  N         8.6691658812       16.0440055278        6.7716365493
  C         9.9879175156       16.3080166302        6.5005287270
  N         6.5245798453       17.6114969947        3.0600666386
  C         6.2558700523       17.3424039118        1.7414292547
  N         6.4850590164        6.7828872915       13.8799836911
  C         6.2141755744        6.5143105272       12.5621535148
  N         6.4778671919        5.2379464068       19.7438074224
  C         6.2071784477        5.5088218342       21.0609931160
  N         6.5139245001       16.0483035117        8.9218927887
  C         6.2456278916       16.3196421958       10.2394362086
  N        15.7878043324       17.5662149551       19.7433882904
  C        16.0581480521       17.2949999865       21.0606073222
  N        15.7397893494        6.7411694282        8.9223842175
  C        16.0045786446        6.4654276778       10.2397431186
  N        15.7411386283        5.1901065496        3.0618068673
  C        16.0097951587        5.4595361031        1.7432038035
  N        15.7831526489       16.0126113309       13.8774338075
  C        16.0554687752       16.2805047145       12.5599157155
 Zn        14.4885526249       14.7228284418       14.7356212081
 Br        13.1701750466       13.4121456537       13.4211014682
 Zn        14.4484386039        3.9001122827        3.9334357316
 Br        13.1312473418        2.5873794235        2.6192189206
 Zn         3.6738494223       14.7656867906        3.9090020969
 Br         2.3561505823       13.4538245570        2.5948277927
 Zn         3.6329426092        3.9395720865       14.7392389938
 Br         2.3186340420        2.6244991510       13.4249299454
 Zn         7.7826376159        8.0693384221       14.7406706304
 Br         9.1007593859        9.3819155193       13.4272531325
 Zn         7.8137752646       18.8997972133        3.9327923160
 Br         9.1313111482       20.2128092414        2.6180495640
 Zn        18.5955192845        8.0400666524        3.9090524586
 Br        19.9096936480        9.3526089888        2.5932465060
 Zn        18.6195021985       18.8710085557       14.7387464012
 Br        19.9380972923       20.1822534244       13.4248039050
 Zn         7.8007196478       14.7543720649        8.0606989937
 Br         9.1134023531       13.4354576049        9.3738890850
 Zn         7.7701792651        3.9432568626       18.8853478389
 Br         9.0793831181        2.6250484055       20.2020237345
 Zn        18.6301946126       14.7168679880       18.8749742378
 Br        19.9462297467       13.3993055944       20.1850576798
 Zn        18.6036494234        3.9057437866        8.0604780927
 Br        19.9170397480        2.5913697983        9.3756066143
 Zn        14.4651776724        8.0536839447        8.0627002337
 Br        13.1628006282        9.3753354460        9.3820199837
 Zn        14.4942323880       18.8592125485       18.8850602033
 Br        13.1815368655       20.1730493396       20.2026388449
 Zn         3.6289576456        8.0829742452       18.8765380153
 Br         2.3174355613        9.4026201214       20.1888490577
 Zn         3.6670746112       18.8929230451        8.0607319639
 Br         2.3527724811       20.2088379436        9.3752536032
 Zn        14.4872003587       14.7233492476        8.0604866491
 Br        13.1731535093       13.4107057812        9.3774493739
 Zn        14.4474917909        3.8989984731       18.8766946902
 Br        13.1290758839        2.5860418603       20.1884556783
 Zn         3.6736109659       14.7650876064       18.8851109627
 Br         2.3579875003       13.4541862642       20.2030702807
 Zn         3.6352463500        3.9378819570        8.0612122391
 Br         2.3230550771        2.6211285543        9.3759474026
 Zn         7.7838037710        8.0699361275        8.0612657740
 Br         9.1003709295        9.3827742639        9.3760131826
 Zn         7.8135157801       18.8992097080       18.8734965630
 Br         9.1323297972       20.2142403663       20.1837707156
 Zn        18.5918630437        8.0404886935       18.8856235322
 Br        19.9069209078        9.3520106703       20.2025269779
 Zn        18.6202103910       18.8724690678        8.0606930785
 Br        19.9380369133       20.1829107383        9.3762953614
 Zn        14.4573747930        8.0490351728       14.7359763140
 Br        13.1543902922        9.3692662307       13.4167405287
 Zn        14.4952231848       18.8620438380        3.9097349438
 Br        13.1816821766       20.1766199193        2.5946778776
 Zn         3.6294431787        8.0821826534        3.9321039745
 Br         2.3177751153        9.4009440052        2.6180460643
 Zn         3.6670380831       18.8918203745       14.7369408488
 Br         2.3521911652       20.2085765866       13.4238159133
 Zn         7.8004847022       14.7551807271       14.7366481868
 Br         9.1127595005       13.4354909606       13.4238869577
 Zn         7.7731173954        3.9450543334        3.9099248223
 Br         9.0826146191        2.6268002933        2.5945156654
 Zn        18.6318239216       14.7180682222        3.9327280887
 Br        19.9452571588       13.4019031259        2.6177124713
 Zn        18.6008792618        3.9041063562       14.7423947434
 Br        19.9132762870        2.5882052132       13.4277175282
 Zn         5.6978168430        6.0084090905       16.8153110300
 Zn        16.5583287427       16.7856776748       16.8139913425
 Zn        16.5223295240        5.9702882472        5.9962476615
 Zn         5.7382013156       16.8283692030        5.9940740124
 Zn         5.7016882065        6.0081695662        5.9952809566
 Zn        16.5581736417       16.7882857182        5.9948358839
 Zn         5.7385044281       16.8284757034       16.8138138998
 Zn        16.5180464276        5.9665564904       16.8148794964
  N         3.5172502456        6.0142166907       16.8069316166
  N        14.3399131886        5.9773191559        5.9977316321
  N        18.7419768795       16.7924071178       16.8068316513
  N         7.9250720990       16.8262399669        5.9960012577
  N        18.7092689761        5.9714479503        5.9847930503
  N         7.8890614771        6.0056180521       16.8135951118
  N         3.5538316435       16.8330388604        5.9838340959
  N        14.3753450980       16.7900644252       16.8115079768
  N        16.5218557990        3.7887739593        5.9986296609
  N        16.5590334940       14.6052137127       16.8059059599
  N        16.5578972007       18.9775339035       16.8127762116
  N        16.5265029016        8.1564917266        5.9829434394
  N         5.7415384367       19.0149785421        5.9964742918
  N         5.7059599667        8.1924428307       16.8083420375
  N         5.6968860880        3.8243131927       16.8154080660
  N         5.7356745369       14.6436262291        5.9865305019
  N         5.7455978808       16.8338063791        3.8056391955
  N         5.7058444206        6.0063370248       14.6266872056
  N        16.5629133383       16.7862986123       18.9960805789
  N        16.5279351418        5.9731278634        8.1758133326
  N         5.6987193544        6.0138909100       18.9965360934
  N         5.7360500856       16.8256840446        8.1751746409
  N        16.5201108788        5.9683664930        3.8072593550
  N        16.5580047007       16.7928709234       14.6247598744
  N         5.7000212379        3.8255397440        5.9835192956
  N         5.7369533068       14.6430869638       16.8115891551
  N        16.5570393988       18.9789188937        5.9874326738
  N        16.5266501551        8.1554281498       16.8098039444
  N         5.7409481654       19.0135435588       16.8051740498
  N         5.7076877958        8.1930735755        5.9955771330
  N        16.5183178867        3.7874003564       16.8063361112
  N        16.5584279674       14.6059221026        5.9955458848
  N         3.5527609375       16.8329830078       16.8145147165
  N        14.3755108836       16.7940234507        5.9877744614
  N        18.7433210074       16.7959522917        5.9941213481
  N         7.9246522728       16.8262070203       16.8054583368
  N        18.7076609124        5.9681882506       16.8172194697
  N         7.8902935149        6.0055704529        5.9878566584
  N         3.5186823835        6.0139705312        5.9991069605
  N        14.3388116792        5.9762864613       16.8087318805
  N        16.5185614024        5.9683429191       18.9967158008
  N        16.5597479220       16.7919872773        8.1748908077
  N        16.5630280493       16.7868795290        3.8065472517
  N        16.5257183375        5.9724855828       14.6259422771
  N         5.6996729019        6.0148117806        3.8068113853
  N         5.7359308620       16.8256503608       14.6247245040
  N         5.7452826627       16.8327434562       18.9954224825
  N         5.7083789136        6.0051497604        8.1765885280
  C        11.1450706441       15.7510640044       15.7501518049
  H        11.1405180378       14.9755837759       14.9746532490
  C        11.1121834592        4.9342783658        4.9343109426
  H        11.1093666967        4.1587262031        4.1588359421
  C         0.3331764443       15.7616652282        4.9273012455
  H         0.3378386344       14.9869702890        4.1510112819
  C         0.2986874004        4.9368882653       15.7515680210
  H         0.3047731008        4.1618279501       14.9756400333
  C        11.1185094479        7.0489160874       15.7538784854
  H        11.1218385343        7.8248520366       14.9787768121
  C        11.1544872440       17.8667115762        4.9334346407
  H        11.1579802366       18.6418345935        4.1574998924
  C         0.2891909793        7.0536169557        4.9368734138
  H         0.2845382970        7.8299764547        4.1621678838
  C         0.3216784334       17.8730662872       15.7557481609
  H         0.3165277630       18.6493598435       14.9810181766
  C        11.1464353369       15.7529477203        7.0496286224
  H        11.1428586157       14.9778716992        7.8255481072
  C        11.1102167850        4.9324122374       17.8678932583
  H        11.1063907270        4.1565109563       18.6430152904
  C         0.3328066327       15.7587167655       17.8710854196
  H         0.3386228952       14.9843322718       18.6476825089
  C         0.2988084240        4.9385310037        7.0524797875
  H         0.3035693256        4.1640360194        7.8289755102
  C        11.1186701736        7.0495173477        7.0496712196
  H        11.1212559315        7.8249475551        7.8252710134
  C        11.1551242255       17.8655513531       17.8654306424
  H        11.1599466200       18.6408814030       18.6411455333
  C         0.2866104600        7.0524967684       17.8665006039
  H         0.2805548430        7.8287225647       18.6413147979
  C         0.3239913440       17.8758339177        7.0430251345
  H         0.3198295670       18.6515200680        7.8183864580
  C        15.4896112144       11.3852644153       15.7457823560
  H        14.7149177308       11.3897590242       14.9694528414
  C        15.4791373979        0.5599794150        4.9375760481
  H        14.7031238206        0.5559665980        4.1625507185
  C         4.6647362962       11.4215330923        4.9329019229
  H         3.8891351524       11.4242704821        4.1574690735
  C         4.6590180845        0.5932155272       15.7548224869
  H         3.8826632554        0.5875412790       14.9801517174
  C        15.4683822583       11.3844085805        7.0294716306
  H        14.6902103320       11.3869043164        7.8022775907
  C        15.4768760872        0.5572133875       17.8637765326
  H        14.7013889021        0.5514772155       18.6393075215
  C         4.6640987600       11.4222868627       17.8672087086
  H         3.8890884858       11.4266142209       18.6432121690
  C         4.6593861134        0.5954692587        7.0434184482
  H         3.8832052738        0.5906381087        7.8182694470
  C         6.7780905704       11.4130187350       15.7513679286
  H         7.5534414548       11.4091150403       14.9757000492
  C         6.7744574426        0.6052142378        4.9287153729
  H         7.5493014137        0.6100920841        4.1525654571
  C        17.6004495472       11.3778943150        4.9315227178
  H        18.3825455085       11.3748101545        4.1626727913
  C        17.5901785643        0.5684270424       15.7466644719
  H        18.3644147790        0.5737803498       14.9698867776
  C         6.7798239849       11.4151241049        7.0477370405
  H         7.5553726092       11.4126602487        7.8232167311
  C         6.7737542001        0.6046071131       17.8697434524
  H         7.5483839163        0.6105192755       18.6460791650
  C        17.6017869766       11.3756934014       17.8640196548
  H        18.3761926431       11.3710474071       18.6406423879
  C        17.5935066826        0.5681951568        7.0537047371
  H        18.3679327840        0.5720743575        7.8302909985
  C        15.5075805630       15.7287582981       11.3994575782
  H        14.7325772145       14.9527283032       11.3994378481
  C        15.4599297752        4.9102883623        0.5821047836
  H        14.6839372301        4.1352950702        0.5820311681
  C         4.6887240730       15.7779726283        0.5806696933
  H         3.9120359309       15.0035854343        0.5810751162
  C         4.6457353801        4.9522351570       11.4012165486
  H         3.8686128635        4.1783364118       11.4010069916
  C         6.7953722405       15.7696366315       11.3997711785
  H         7.5700524468       14.9931590011       11.3998251133
  C         6.7575031195        4.9601249721        0.5815593940
  H         7.5332708519        4.1848207857        0.5818962569
  C        17.6186276751       15.7244512426        0.5812956075
  H        18.3913659977       14.9461898122        0.5810823388
  C        17.5828298089        4.9135842783       11.4008838778
  H        18.3640411326        4.1438502861       11.4007324831
  C        15.4522366079        7.0123114228       11.4001584574
  H        14.6746148667        7.7856445519       11.3995639952
  C        15.5104081650       17.8463553305        0.5811495074
  H        14.7370976191       18.6240944672        0.5812886914
  C         4.6396527903        7.0724751904        0.5815129656
  H         3.8632672795        7.8470839438        0.5811338355
  C         4.6819182369       17.8870008899       11.3997412668
  H         3.9073255419       18.6635465274       11.3997268018
  C         6.7651274391        7.0631848179       11.4016745379
  H         7.5421306654        7.8372234925       11.4018066909
  C         6.8059704540       17.8911583357        0.5802036642
  H         7.5822165083       18.6659291832        0.5797049540
  C        17.5752281611        7.0248739070        0.5816056657
  H        18.3509466667        7.8002066796        0.5817160324
  C        17.6197424861       17.8470759101       11.3997092673
  H        18.3945088189       18.6233569800       11.3996515298
 Xe        17.4761082731        9.9535397430        9.9775782669
