     409
 i =      56, E =    -5133.8708239937
  N         2.7938334072        5.2124319157       15.9737200120
  C         1.4764155987        5.4979614521       16.2321894100
  N        13.5683988514        5.1286320742        5.0911622194
  C        12.2479098099        5.3696430839        5.3835099626
  N        19.6186028837       17.6186622921       16.0341964321
  C        20.9355855222       17.3371831157       16.2988715695
  N         8.7405766486       17.5410605332        5.2128741455
  C        10.0595609909       17.2685519161        5.4751128346
  N        19.4278019837        5.2314443923        6.7808281954
  C        20.7487113512        5.4933925375        6.5125871915
  N         8.6524861158        5.1686106975       17.5606677369
  C         9.9721828822        5.4128527904       17.2769761750
  N         2.8795381535       17.5345282429        6.7807119274
  C         1.5613262431       17.2760922043        6.5053364003
  N        13.7501081508       17.6301254582       17.6127642887
  C        12.4331382264       17.3500052072       17.3455101727
  N        15.7595146605        3.0213496535        5.1809741110
  C        16.0529255083        1.7108365199        5.4605093890
  N        15.9258411143       13.9145729891       16.0243932149
  C        16.1836467912       12.5955509196       16.2954533529
  N        15.9111162013       19.7726928863       17.5871293062
  C        16.1450239761       21.0907015071       17.2894738086
  N        15.7542881048        8.8971253748        6.6872969741
  C        16.0625301895       10.2145510639        6.4555462745
  N         6.5641826124       19.6951979695        5.2170475841
  C         6.2567840384       21.0087401383        5.4657751873
  N         6.5799280294        8.8896372014       15.9990746850
  C         6.3345360298       10.2117844681       16.2778228394
  N         6.4993594815        3.0512908476       17.5726830999
  C         6.2557199836        1.7306942858       17.3001727043
  N         6.5728187494       13.8113414297        6.7376982158
  C         6.2895398345       12.4970352925        6.4595266791
  N         5.0289311748       16.0068098742        3.0446389515
  C         5.3060954315       16.2830618871        1.7293131407
  N         4.9393718773        5.1688836199       13.8379504952
  C         5.1940993036        5.4395786766       12.5174605175
  N        17.4639890813       16.0540236247       19.7478816124
  C        17.1771248811       16.3061751555       21.0655907457
  N        17.1954155351        5.2757253617        8.8806920756
  C        16.9207834239        5.5568786886       10.1954612123
  N         4.9376452873        6.7700719489       19.6908605888
  C         5.1868101713        6.4903337849       21.0110513069
  N         5.0560740148       17.5240052201        8.9194818819
  C         5.3475627760       17.2652009072       10.2341895072
  N        17.3390083047        6.7020175344        3.0185756363
  C        17.0857012885        6.4291864069        1.7000773362
  N        17.4630874669       17.6186137027       13.8769571634
  C        17.1798666553       17.3450720386       12.5619062888
  N         4.8827149763        2.9937598943        6.7075753243
  C         5.1779401162        1.6778017640        6.4522468590
  N         5.0840908826       13.8615098595       17.5729981236
  C         5.3427224260       12.5429739962       17.2973882931
  N        17.3997879898       19.7362505385        6.7599592483
  C        17.1070410093       21.0501332243        6.4890364058
  N        17.3698130099        8.9402668429       17.6189214284
  C        17.1386257791       10.2615127266       17.3309201969
  N         5.0630490843       19.7102157395       16.0087689423
  C         5.3023345555       21.0321823339       16.2817893206
  N         4.9439823926        8.8779387591        5.1692413191
  C         5.2374536765       10.1912446899        5.4389217978
  N        17.3118422090        3.1053624511       15.9336399958
  C        17.0820011705        1.7822981935       16.2204217814
  N        17.4158413195       13.8534070319        5.2349938928
  C        17.1297276320       12.5355273821        5.4883187086
  N         2.9280526643       16.0134126787       17.5689977184
  C         1.6119112965       16.2966082265       17.3056847352
  N        13.7052573020       15.9884021676        6.7523457690
  C        12.3854705959       16.2483553471        6.4791795936
  N        19.5590936165       16.0150483341        5.2135543067
  C        20.8772940292       16.2801070243        5.4833185351
  N         8.8053816452       16.0293480074       16.0552632703
  C        10.1196943805       16.3112116201       16.3310373087
  N        19.4857246700        6.7918885260       17.5277064128
  C        20.8001444227        6.5210320593       17.2465975640
  N         8.6157561227        6.6267451179        6.7240858953
  C         9.9288175487        6.3485651748        6.4439791825
  N         2.7528447658        6.7486570721        5.1990928137
  C         1.4348178575        6.4901905879        5.4800474964
  N        13.6142227499        6.7105945801       16.0072395713
  C        12.2968332011        6.4109847824       16.2497722922
  N        15.8189064250        5.1705017070       19.6939556961
  C        16.0895040504        5.4255170912       21.0126270150
  N        15.8567005354       16.0429091912        8.9363358576
  C        16.1357124369       16.3209260094       10.2515728977
  N        15.8488309813       17.5467329300        3.0633404094
  C        16.1325249069       17.2902045726        1.7463298437
  N        15.6629816546        6.8900385520       13.8354322930
  C        15.9109972355        6.5950331811       12.5171284008
  N         6.4251209250        5.1596222750        3.0078012692
  C         6.1656354004        5.4446466968        1.6927335753
  N         6.6700091737       16.0095061591       13.8728970380
  C         6.3932217539       16.2707902075       12.5532703283
  N         6.6146231168       17.5834164998       19.7405078958
  C         6.3365490540       17.3098577512       21.0566046174
  N         6.4561482289        6.7082191403        8.8663034461
  C         6.1880667723        6.4487568857       10.1861039337
  N        19.5640006545       17.5725344279        6.7672558587
  C        20.8808200269       17.2944436697        6.5002353072
  N         8.7873852883       17.5990393053       17.5985196998
  C        10.1093035689       17.3355830068       17.3380299106
  N         2.7497997776        5.1928190765        6.7567454731
  C         1.4320238347        5.4778224162        6.4994973895
  N        13.6133221280        5.1986905518       17.6034951508
  C        12.2954203690        5.4300131263       17.2984309387
  N         2.9343653027       17.5616309380       16.0076820161
  C         1.6161286475       17.3088765431       16.2870491789
  N        13.6975492219       17.5633337792        5.2173123805
  C        12.3811999824       17.2792383768        5.4789795188
  N        19.4709103310        5.2633003866       15.9460395323
  C        20.7927206567        5.5185086767       16.2179409493
  N         8.6008792390        5.1094095530        5.1318792056
  C         9.9224292525        5.3591796609        5.4045774779
  N         6.6068660431       19.7386129502       17.5756042557
  C         6.3116031330       21.0511975580       17.3036761860
  N         6.5207877242        8.8512042487        6.7036167165
  C         6.2649564930       10.1740762826        6.4427190104
  N         6.4289977735        3.0044399436        5.1435041535
  C         6.1880881675        1.6864784435        5.4314158947
  N         6.6622530120       13.8534453878       16.0399089297
  C         6.3737922272       12.5358773350       16.2973978029
  N        15.7814173334        3.0805718670       17.5132387469
  C        16.0813430416        1.7689410790       17.2507856293
  N        15.8764233818       13.8529060474        6.8072786162
  C        16.1244521036       12.5356293497        6.5137107479
  N        15.8528190029       19.7094678212        5.1950692820
  C        16.0995091863       21.0309565235        5.4653740577
  N        15.8280478726        8.9602608469       16.0506865016
  C        16.1315866383       10.2747476430       16.3068039226
  N        17.3727195111        6.7277877659       19.7096172413
  C        17.1031779133        6.4426786822       21.0231680789
  N        17.4208385379       17.5913446750        8.9189145537
  C        17.1578747754       17.3303759221       10.2396192904
  N         4.8854535485        6.7307123481        3.0129267442
  C         5.1605930179        6.4707252773        1.6933994352
  N         5.1035043077       17.5545714740       13.8698056317
  C         5.3712742139       17.2801530354       12.5536271723
  N        17.4064739434       15.9939592546        3.0647369455
  C        17.1488603005       16.2754784689        1.7467549671
  N        17.2362794161        5.3454800281       13.8345538666
  C        16.9405485585        5.5933944181       12.5179081096
  N         5.0667587129       16.0195154939       19.7280776801
  C         5.3246344480       16.2903827359       21.0477785356
  N         4.9141998856        5.1393465988        8.8796718157
  C         5.1818266053        5.4238070908       10.1953692516
  N        17.4520647222       19.7829720935       16.0158083863
  C        17.1495103246       21.0995129171       16.2626105408
  N        17.3041426079        8.8974785872        5.1272282938
  C        17.0731113327       10.2143222786        5.4349861251
  N         4.9480712011        3.0261584808       16.0123644025
  C         5.2437789474        1.7126549878       16.2810938186
  N         5.0099396613       13.8354128808        5.1888241089
  C         5.2675520693       12.5133839208        5.4502398956
  N        17.2884862649        3.0577211735        6.7626630483
  C        17.0534889554        1.7329659399        6.4909357778
  N        17.4699506423       13.9007179156       17.5911744761
  C        17.1900597678       12.5844525371       17.3192108836
  N         5.0130929457       19.6788247451        6.7765467176
  C         5.2446800922       20.9982267402        6.4848363843
  N         4.9969044774        8.9085201321       17.5279687755
  C         5.3015659502       10.2223772944       17.2762370594
  N        19.4393402777        6.7634349888        5.2033212127
  C        20.7541924070        6.4967530125        5.4850017986
  N         8.6613354399        6.6557619065       15.9386751756
  C         9.9761775172        6.3821131541       16.2187645702
  N         2.7999084641        6.7754351629       17.5227559228
  C         1.4811870934        6.5138080955       17.2478625113
  N        13.5632682160        6.6617682996        6.6677607203
  C        12.2474869310        6.3668152315        6.4171896317
  N         2.8740412210       15.9972627352        5.2071977096
  C         1.5575969324       16.2696382868        5.4806346183
  N        13.7599261765       16.0610642010       16.0726771606
  C        12.4406647741       16.3254388438       16.3391759464
  N        19.6137960420       16.0618649214       17.5902877740
  C        20.9318443005       16.3219205823       17.3151909939
  N         8.7462117207       15.9528677338        6.7348822210
  C        10.0632715604       16.2327292046        6.4698416736
  N         6.5861982572       17.5607420012        3.0597141471
  C         6.3218110093       17.2987317193        1.7390773501
  N         6.4766474258        6.7424882766       13.8224345843
  C         6.1985046419        6.4663245022       12.5072494431
  N         6.4802490358        5.2027375030       19.7017181621
  C         6.1930177815        5.4657058101       21.0155761376
  N         6.6177562211       15.9723860026        8.9087453597
  C         6.3674043988       16.2534653210       10.2292479161
  N        15.9110844509       17.6138517291       19.7488910372
  C        16.1628386829       17.3234876584       21.0659805330
  N        15.6130732533        6.8082895245        8.8666183880
  C        15.8877279851        6.5538876923       10.1871236691
  N        15.7902884269        5.1392100285        3.0036124047
  C        16.0740284684        5.4098918261        1.6897999981
  N        15.8949293070       16.0752294478       13.8944580260
  C        16.1561064580       16.3375371839       12.5738525086
 Zn        14.6125238633       14.7844665141       14.7676429986
 Br        13.2037613503       13.5650276325       13.4591188365
 Zn        14.4842020322        3.8401825764        3.8391404582
 Br        13.2125218732        2.4966012968        2.5134190948
 Zn         3.7302739445       14.7162863442        3.8974937001
 Br         2.4003972790       13.4261729200        2.5737395104
 Zn         3.6530742549        3.8843276185       14.7155139321
 Br         2.3244480587        2.5628266709       13.4201416000
 Zn         7.8162146480        7.9949279301       14.6730460900
 Br         9.1072158266        9.2919209305       13.3195278885
 Zn         7.8778025243       18.8434409564        3.9380623222
 Br         9.1901948392       20.1679469601        2.6306473962
 Zn        18.6086638428        8.0212630974        3.8627214817
 Br        19.9420459502        9.3211461163        2.5542413726
 Zn        18.7597443108       18.9155434632       14.7372564165
 Br        20.0717186236       20.2308141096       13.4214521528
 Zn         7.8828755125       14.6599119462        8.0240263760
 Br         9.1743770618       13.3222929471        9.3388050101
 Zn         7.7857675502        3.9076920699       18.8723564796
 Br         9.1023623731        2.6026945676       20.1927817501
 Zn        18.7608543826       14.7657206701       18.8842214676
 Br        20.0660514601       13.4392664899       20.1965095823
 Zn        18.5248331973        3.9678612152        8.0682834997
 Br        19.8239788457        2.6752740290        9.4190742150
 Zn        14.3604581761        8.0620907391        7.8869209348
 Br        12.7917857860        9.5536982637        8.6143073928
 Zn        14.6237235178       18.9212981555       18.8919439186
 Br        13.3116395571       20.2273145025       20.2162771708
 Zn         3.6734281482        8.0698241283       18.8082294370
 Br         2.3717381889        9.4089164200       20.1114580375
 Zn         3.7419607029       18.8134461538        8.0806821326
 Br         2.4332852257       20.1252292790        9.4030588728
 Zn        14.5740249859       14.7341609831        8.0734602537
 Br        13.1647688554       13.5294205117        9.3962007808
 Zn        14.5007775208        3.8950594939       18.8494217562
 Br        13.2131728630        2.5552356001       20.1631111262
 Zn         3.7867086182       14.7196803721       18.8620286899
 Br         2.4600676839       13.4119155835       20.1702080448
 Zn         3.6102345199        3.8589077846        8.0143748150
 Br         2.2841231376        2.5547637053        9.3292223052
 Zn         7.7846266955        7.9558375781        8.0003916033
 Br         9.0728852422        9.2622150473        9.3470808175
 Zn         7.8997291709       18.8872012580       18.8797926412
 Br         9.1981336621       20.2123911308       20.2006243234
 Zn        18.6606433359        8.0464703324       18.8804334531
 Br        20.0013717049        9.3191419363       20.2074810492
 Zn        18.7084134328       18.8831952831        8.0469901533
 Br        20.0262801488       20.2118584816        9.3439193087
 Zn        14.4249272335        8.1533002811       14.8373276487
 Br        12.8092450949        9.6758328162       14.2868704418
 Zn        14.5546245282       18.8391717402        3.9118705602
 Br        13.2311468189       20.1432085643        2.5966146820
 Zn         3.6196685217        8.0341043493        3.8959681145
 Br         2.3146026679        9.3701486866        2.5929846362
 Zn         3.7924288730       18.8378828293       14.7087296049
 Br         2.4786523360       20.1484097490       13.3881809952
 Zn         7.9589907823       14.7236120161       14.7591513137
 Br         9.2634394290       13.4036074640       13.4391446737
 Zn         7.7152509085        3.8469129304        3.8377087394
 Br         9.0196502552        2.5310475336        2.5149863534
 Zn        18.7030117017       14.7112858172        3.9341235109
 Br        20.0041471185       13.3846491456        2.6178644050
 Zn        18.5590488241        4.0221187504       14.6429331465
 Br        19.8503496156        2.7259950466       13.2871798845
 Zn         5.7308821219        5.9641095280       16.7649209701
 Zn        16.6968063676       16.8462208358       16.8230205238
 Zn        16.4940009561        5.9650402562        5.9166576268
 Zn         5.8076119466       16.7583966488        5.9912902810
 Zn         5.6762839686        5.9313004555        5.9423993989
 Zn        16.6329405617       16.7867600235        5.9995527790
 Zn         5.8702260618       16.7883212350       16.8053155273
 Zn        16.5412881328        6.0259094684       16.7867429426
  N         3.5433098674        5.9870575898       16.7525618713
  N        14.3117319131        5.9119661104        5.8682450415
  N        18.8701421064       16.8449199155       16.8150838047
  N         7.9964288920       16.7452915580        5.9750561810
  N        18.6861705748        5.9979922011        5.9866236963
  N         7.9101782815        5.9213541592       16.7532400645
  N         3.6236278684       16.7626351063        5.9945604546
  N        14.5024359688       16.8499366224       16.8419906044
  N        16.5090100371        3.7857837546        5.9690739914
  N        16.7025550063       14.6550601686       16.8093736452
  N        16.6992934256       19.0316230743       16.8148630078
  N        16.5081386114        8.1512990303        5.8867807984
  N         5.8080765628       18.9404829532        6.0084752530
  N         5.7714027994        8.1528109250       16.7556540640
  N         5.7114114787        3.7852199842       16.7939128015
  N         5.7982360632       14.5700581269        5.9676013312
  N         5.8045068413       16.7799481365        3.7991234577
  N         5.7150263343        5.9562758245       14.5768902528
  N        16.6968730621       16.8437993259       19.0021649287
  N        16.4074123397        6.0340576575        8.1257749189
  N         5.7192854345        5.9907024571       18.9491768168
  N         5.8255122618       16.7421331425        8.1680990821
  N        16.5558254944        5.9224594033        3.7571385788
  N        16.6844366355       16.8493882930       14.6325812462
  N         5.6434258376        3.7459313469        5.9172693637
  N         5.8807557849       14.6041484174       16.8108519947
  N        16.6375666784       18.9762328263        5.9778987881
  N        16.5789418364        8.2044699645       16.8443023605
  N         5.8488886033       18.9776170618       16.7911991330
  N         5.7213215079        8.1180374307        5.9351753379
  N        16.5291043255        3.8395963029       16.7187058151
  N        16.6550423627       14.6000036553        6.0295154849
  N         3.6786060452       16.7799660103       16.7838151685
  N        14.4480609787       16.7827006621        5.9884529414
  N        18.8148171612       16.7965094157        5.9897736086
  N         8.0503376345       16.8092301594       16.8228839456
  N        18.7313154650        6.0317167145       16.7405106943
  N         7.8610936361        5.8765065413        5.9278547580
  N         3.4970961489        5.9627434181        5.9712009349
  N        14.3594862597        5.9756876026       16.8232752320
  N        16.5937627559        5.9580088189       18.9552134850
  N        16.6354538585       16.8128450031        8.1813541218
  N        16.6212881452       16.7646815142        3.8111445942
  N        16.4650252350        6.1274621718       14.5822594425
  N         5.6520717941        5.9387425620        3.7572201255
  N         5.8881603225       16.7854469781       14.6180601598
  N         5.8461237970       16.8016789974       18.9877612434
  N         5.6860470198        5.9173949132        8.1263696865
  C        11.2850197309       15.7639917392       15.7911946088
  H        11.2944325593       14.9832777891       15.0211775938
  C        11.0826899024        4.8231475873        4.8358755784
  H        11.0773331763        4.0650326271        4.0435756478
  C         0.3944096974       15.7278788127        4.9291884143
  H         0.3902992723       14.9563848999        4.1496650830
  C         0.3128985837        4.9637273554       15.6707850024
  H         0.3123189336        4.1933014535       14.8904176484
  C        11.1363964977        6.9117495871       15.6556107273
  H        11.1359688211        7.6637970331       14.8595010097
  C        11.2186004437       17.8324729273        4.9366015352
  H        11.2165046283       18.6214804478        4.1748822298
  C         0.2752554836        7.0411698965        4.9309621277
  H         0.2750054095        7.8113417707        4.1499790047
  C         0.4594661432       17.8730845891       15.7431350400
  H         0.4655213479       18.6485529022       14.9675464883
  C        11.2256154420       15.6799063173        7.0124102046
  H        11.2289223548       14.8920052713        7.7751374212
  C        11.1325208870        4.8881829898       17.8535792964
  H        11.1297440432        4.1430812878       18.6581097124
  C         0.4483642211       15.7612902374       17.8621948265
  H         0.4434928458       14.9879417108       18.6398464197
  C         0.2696229506        4.9428826265        7.0622218852
  H         0.2697627064        4.1738908944        7.8440221743
  C        11.0891083437        6.8867008987        6.9971315128
  H        11.0922083252        7.6522334681        7.7810448480
  C        11.2660881131       17.8965867474       17.8869931138
  H        11.2588577327       18.6780310012       18.6564249014
  C         0.3224693102        7.0646149585       17.7989927114
  H         0.3235519581        7.8350438613       18.5796848923
  C         0.4039850362       17.8325969020        7.0553258377
  H         0.4085396314       18.6051296164        7.8338108255
  C        15.6175703266       11.4451139938       15.7444384134
  H        14.8370934602       11.4588592483       14.9755668154
  C        15.5329288905        0.5389067959        4.9072123355
  H        14.7656292603        0.5213082238        4.1235705852
  C         4.6988278989       11.3620953827        4.8995331056
  H         3.9165042369       11.3762601592        4.1309796811
  C         4.7256050817        0.5390933473       15.7293845063
  H         3.9530884211        0.5178220170       14.9512249748
  C        15.5519396409       11.3763414544        7.0402655627
  H        14.7719876071       11.3758218037        7.8100045063
  C        15.5695253050        0.6039991134       17.8257107630
  H        14.8032392788        0.5961491542       18.6105947304
  C         4.7651652902       11.3876417950       17.8282170372
  H         3.9772906741       11.3949233603       18.5910868689
  C         4.6622964583        0.5104728270        7.0196592120
  H         3.8898482541        0.4978138824        7.7981032983
  C         6.9138675468       11.3689526237       15.7485794398
  H         7.7004728676       11.3628384074       14.9843351731
  C         6.7684499408        0.5352684684        4.8946382675
  H         7.5398440266        0.5481885838        4.1150945008
  C        17.6487591959       11.3743106581        4.9097918629
  H        18.4172147978       11.3741176616        4.1272020566
  C        17.6569741517        0.6265765437       15.6838114621
  H        18.4220273163        0.6347874315       14.8982855653
  C         6.8318612076       11.3259011132        6.9950024385
  H         7.6125680785       11.3118662349        7.7650532647
  C         6.8306786657        0.5844332511       17.8543603701
  H         7.6023166912        0.6064782713       18.6334255241
  C        17.7115321494       11.4139668027       17.8771804167
  H        18.4793593879       11.4005051098       18.6601825775
  C        17.6236273511        0.5835184598        7.0455391346
  H        18.3901105009        0.6014677245        7.8296020993
  C        15.5911813829       15.7854590840       11.4211519475
  H        14.8047865469       15.0213589903       11.4348729856
  C        15.5346529159        4.8634736572        0.5240842818
  H        14.7607112575        4.0863015069        0.5127761074
  C         4.7657363586       15.7372572679        0.5625639038
  H         3.9904686669       14.9615390512        0.5531408315
  C         4.6422282807        4.8782894235       11.3629393455
  H         3.8733910678        4.0963763923       11.3731969441
  C         6.9340373693       15.7170533378       11.3892709449
  H         7.7125892732       14.9447570668       11.3862512550
  C         6.7230373213        4.8990573122        0.5354436322
  H         7.4909167682        4.1159826082        0.5372353227
  C        17.7115015474       15.7399353607        0.5856997329
  H        18.4861062005       14.9636142998        0.5852790265
  C        17.4836701801        5.0318970397       11.3603241819
  H        18.2676010636        4.2642730418       11.3665372601
  C        15.3356616608        7.1020247435       11.3483891411
  H        14.5451572025        7.8568779248       11.3395826114
  C        15.5970916355       17.8558465845        0.5867978658
  H        14.8213089051       18.6311958700        0.5879138423
  C         4.6290706398        7.0360594067        0.5308436442
  H         3.8627087456        7.8205928354        0.5284814089
  C         4.8084618423       17.8209991495       11.3959199341
  H         4.0289663148       18.5926483801       11.3991746651
  C         6.7355914405        7.0142546884       11.3402327875
  H         7.5038546558        7.7969276979       11.3297303266
  C         6.8768404194       17.8556363603        0.5838107249
  H         7.6505024516       18.6329287000        0.5929769493
  C        17.6457928484        6.9859200133        0.5487681648
  H        18.4189902391        7.7637671403        0.5601406492
  C        17.7216205589       17.8838803932       11.3923763958
  H        18.5017625289       18.6547054946       11.3791686630
 Xe        14.9639743909       10.8060577423       11.4340069270
