     409
 i =      56, E =    -5133.8739880995
  N         2.9670627188        5.2874627292       15.9627884447
  C         1.6420483036        5.5298940880       16.2280382340
  N        13.7829794928        5.0804911307        5.1120357728
  C        12.4641532331        5.3435543230        5.3895582234
  N        19.5722383649       17.5309032950       15.9773238761
  C        20.8901551459       17.2923552079       16.2721991730
  N         8.7809145986       17.5998205286        5.2483247571
  C        10.0966951690       17.2967266262        5.4938572796
  N        19.6453381297        5.1554837849        6.7241100867
  C        20.9620443587        5.4587466015        6.4830451353
  N         8.8128520073        5.2357836798       17.6262592895
  C        10.1302502249        5.4514635272       17.3080807164
  N         2.8997233689       17.5839586452        6.7859774011
  C         1.5866272909       17.2942782771        6.5111595040
  N        13.7284064246       17.5832300420       17.5942318683
  C        12.4038213588       17.3303923444       17.3398542791
  N        15.9562561126        2.9586333039        5.1264309598
  C        16.2130689610        1.6422972506        5.4123711847
  N        15.8227482253       13.8320119560       16.0117977233
  C        16.0998871438       12.5118230568       16.2691050278
  N        15.9053731103       19.7034800535       17.5554103209
  C        16.1793012630       21.0174252586       17.2726203718
  N        15.8939193085        8.8175486098        6.6687322995
  C        16.1637409064       10.1383788637        6.4130604841
  N         6.6039731367       19.7525695362        5.2316194294
  C         6.3316171921       21.0709176246        5.4936463415
  N         6.6214909705        8.9911883047       16.0696672267
  C         6.3312144467       10.3075474811       16.3311735601
  N         6.6503164548        3.1237024628       17.5530862773
  C         6.3683740906        1.8085281410       17.2898356470
  N         6.6033053570       13.8817965199        6.8312892723
  C         6.3430143138       12.5654601755        6.5410876975
  N         5.0832120278       16.0394115897        3.0898548288
  C         5.3459122372       16.3237169169        1.7742457714
  N         5.1895696370        5.3680275305       13.8593691735
  C         5.4756791762        5.6203216015       12.5420833428
  N        17.4464240174       15.9738755406       19.7030650449
  C        17.1836164896       16.2379903092       21.0239008121
  N        17.4822724858        5.1103588821        8.8486762231
  C        17.2185930551        5.3941681000       10.1645963931
  N         5.0414178975        6.7815650140       19.7291228399
  C         5.3012903716        6.4964183662       21.0452255964
  N         5.0524386649       17.6194251897        8.9472364411
  C         5.3243034728       17.3632378041       10.2676601116
  N        17.4992125222        6.6801920163        2.9839323275
  C        17.2269283765        6.4201289035        1.6648079388
  N        17.3968511819       17.5245450927       13.8432311374
  C        17.1243424907       17.2464063630       12.5286475437
  N         5.0901343521        3.0867148563        6.7840475310
  C         5.3378420858        1.7632207281        6.5125537243
  N         5.0300673263       13.9417623071       17.6269051827
  C         5.2976965066       12.6241320424       17.3502274663
  N        17.4462541368       19.6453361863        6.7474009582
  C        17.1944918413       20.9628446322        6.4607498863
  N        17.4353984662        8.8736508422       17.5070190612
  C        17.1461711583       10.1893491509       17.2504243938
  N         5.0526536855       19.8074072883       16.0497848017
  C         5.3375620563       21.1265703488       16.3003807874
  N         5.1107357886        8.9367317521        5.1665242980
  C         5.3604801509       10.2515601746        5.4696083089
  N        17.4874024083        3.0039701408       15.9666038417
  C        17.2074787348        1.6876933871       16.2377700728
  N        17.4635718607       13.7902264755        5.1756923206
  C        17.1896158908       12.4699712502        5.4304012621
  N         2.8921853034       16.0968284796       17.6262060660
  C         1.5742809724       16.3382996096       17.3335996642
  N        13.7279072649       15.9205678989        6.7138688380
  C        12.4117780993       16.2163444589        6.4600118218
  N        19.6118486845       15.9565562164        5.1976671189
  C        20.9249106305       16.2426559524        5.4766498548
  N         8.7400147340       16.0872384424       16.0911207773
  C        10.0615024373       16.3425370851       16.3523528002
  N        19.6176789465        6.7454413107       17.5096150805
  C        20.9394149897        6.4963326155       17.2419282885
  N         8.8414418116        6.6800541022        6.6756045417
  C        10.1532322038        6.3763049258        6.4152859584
  N         2.9526960752        6.8067435195        5.2405957185
  C         1.6378815415        6.5184523209        5.5028627161
  N        13.7642095202        6.6375832382       15.9157368573
  C        12.4490499737        6.3781683689       16.2064797047
  N        15.9333670516        5.1556157454       19.6650730698
  C        16.2093474078        5.4178601645       20.9817432412
  N        15.8551424659       15.9381008753        8.8906842280
  C        16.1128763496       16.2182558306       10.2101286843
  N        15.9040511105       17.5015925423        3.0321369881
  C        16.1761988238       17.2409699552        1.7134671536
  N        15.9474743488        6.7172691569       13.7963940491
  C        16.2162179911        6.4377667245       12.4799291533
  N         6.5881625721        5.1828534183        3.0299113605
  C         6.3110706649        5.4584483076        1.7165394983
  N         6.6036070119       16.1076817803       13.9179834117
  C         6.3386267239       16.3710926801       12.5983988179
  N         6.6052042732       17.6532779746       19.7811316171
  C         6.3457243148       17.3687997766       21.0982982747
  N         6.7915289403        6.8281235621        8.8865930705
  C         6.5189053234        6.5795359411       10.2084334889
  N        19.5850009584       17.5006465359        6.7640607285
  C        20.9066203116       17.2518976284        6.4984726507
  N         8.7655495289       17.6541119266       17.6343591739
  C        10.0801316044       17.3652679614       17.3607473506
  N         2.9651275146        5.2707457851        6.8150735423
  C         1.6443103474        5.5135776299        6.5292421624
  N        13.7722365751        5.1396996502       17.5267338643
  C        12.4525147088        5.4030708327       17.2594498890
  N         2.8865320435       17.6479136115       16.0660146575
  C         1.5701084214       17.3512251820       16.3153679368
  N        13.7378460807       17.5020095309        5.1838775509
  C        12.4183733497       17.2493149627        5.4621836216
  N        19.6440773418        5.1887205883       15.9539612293
  C        20.9582109166        5.4829544321       16.2238938923
  N         8.8152781320        5.1448966221        5.1024663221
  C        10.1389269728        5.3763886919        5.3846448425
  N         6.5998407625       19.8114636978       17.6165660150
  C         6.3449354838       21.1281865995       17.3248149032
  N         6.6719805891        8.9229607406        6.7159994720
  C         6.3767789880       10.2431938506        6.4847051740
  N         6.6142463947        3.0627656991        5.1965313931
  C         6.3361762816        1.7505767899        5.4797369563
  N         6.5727636766       13.9472436887       16.0579420041
  C         6.3047889231       12.6293399477       16.3268551920
  N        15.9330088947        3.0149785507       17.5234734597
  C        16.1947210707        1.6965657599       17.2561459951
  N        15.8965344615       13.7762518026        6.7208648124
  C        16.1663936620       12.4604517061        6.4386513357
  N        15.9015708965       19.6458682495        5.1816961945
  C        16.1851628321       20.9627176959        5.4389759226
  N        15.8558065524        8.8661812710       15.9748818442
  C        16.1139821036       10.1868116374       16.2512841542
  N        17.4722247139        6.7258973368       19.6661775054
  C        17.2145941722        6.4433021141       20.9838417747
  N        17.4173685769       17.4869444181        8.8937545985
  C        17.1348056168       17.2274960982       10.2097381079
  N         5.0449742294        6.7505075244        3.0436565019
  C         5.3025080575        6.4807531628        1.7242378202
  N         5.0382085561       17.6522633885       13.9064155135
  C         5.3162296033       17.3797495933       12.5902518537
  N        17.4608717022       15.9463968178        3.0242932181
  C        17.1900390260       16.2233183653        1.7070879351
  N        17.4905657675        5.1487111327       13.8053100117
  C        17.2231980213        5.4133699948       12.4860586362
  N         5.0492106481       16.0975178421       19.7773985430
  C         5.3298483263       16.3532185949       21.0949648560
  N         5.2032604606        5.3017730365        8.9083141485
  C         5.4831221913        5.5849121956       10.2212195788
  N        17.4430109565       19.6858424090       15.9821253002
  C        17.1855242664       21.0064080140       16.2477750964
  N        17.4654278581        8.8333362696        5.1300255539
  C        17.1888698606       10.1482814526        5.4070878057
  N         5.1232913786        3.1308815774       15.9702384823
  C         5.3684923494        1.8103914655       16.2587536158
  N         5.0667903204       13.8916729785        5.2565143423
  C         5.3373704571       12.5726034780        5.5160976023
  N        17.5059652578        2.9625166629        6.6884997039
  C        17.2241655337        1.6439178257        6.4326286105
  N        17.4087807337       13.8265034574       17.5373653065
  C        17.1346100642       12.5100533895       17.2655335498
  N         5.0503661184       19.7609938654        6.7903664884
  C         5.3216655446       21.0785911892        6.5151524027
  N         5.0680994553        8.9798838337       17.6280678923
  C         5.3187174201       10.3002985225       17.3502521437
  N        19.6404225864        6.7062562415        5.1619969770
  C        20.9579473175        6.4690808154        5.4618437908
  N         8.8141444222        6.7439185657       16.0263801525
  C        10.1300108646        6.4322851675       16.2591895759
  N         2.9315947703        6.8229683053       17.5375188356
  C         1.6203850020        6.5352171809       17.2538509614
  N        13.7870654033        6.6078942515        6.6952997783
  C        12.4708843995        6.3389335700        6.4237515671
  N         2.9263159637       16.0334889671        5.2264728413
  C         1.6048725339       16.2825517539        5.4920694260
  N        13.6924698662       16.0199227834       16.0459692297
  C        12.3815507328       16.3094460168       16.3299733568
  N        19.5786650425       15.9785512919       17.5366148739
  C        20.8945906168       16.2789137715       17.2901363367
  N         8.7696446498       16.0185008720        6.7777730464
  C        10.0896556154       16.2635524793        6.4919242101
  N         6.6365880436       17.5961847616        3.0974334566
  C         6.3608561050       17.3397549603        1.7788326676
  N         6.7586244966        6.9142246365       13.8551466421
  C         6.5042441086        6.6227639742       12.5373804956
  N         6.5968789093        5.2251527978       19.7240400044
  C         6.3146230481        5.4786268490       21.0403839113
  N         6.6193889900       16.0741017654        8.9608565226
  C         6.3471737717       16.3544705412       10.2765959378
  N        15.9067141895       17.5458197153       19.7175260815
  C        16.1764750811       17.2621421220       21.0325134956
  N        15.9402452543        6.6781767161        8.8385315514
  C        16.2118540720        6.4184620122       10.1581715484
  N        15.9560443246        5.1114502618        2.9760862198
  C        16.2202310381        5.3954969769        1.6606135656
  N        15.8219100284       15.9874152527       13.8546356706
  C        16.0975940334       16.2418436973       12.5338253756
 Zn        14.5203945555       14.7148125574       14.7396775325
 Br        13.2048590011       13.3993880240       13.4268599472
 Zn        14.6644473971        3.8028024588        3.8228342385
 Br        13.3505183088        2.4930402592        2.5030356980
 Zn         3.7928223016       14.7437206324        3.9434732284
 Br         2.4915168943       13.4230946204        2.6218379228
 Zn         3.8814902635        4.0423998169       14.6663794245
 Br         2.5863666682        2.7382072417       13.3213105582
 Zn         8.0066512196        8.1716164942       14.8412761327
 Br         9.6039584639        9.6633852422       14.1759824961
 Zn         7.9195910986       18.8921174694        3.9586344856
 Br         9.2451748581       20.1958543971        2.6448581686
 Zn        18.7760842421        7.9822419148        3.8496509055
 Br        20.0844425631        9.3104831294        2.5430133758
 Zn        18.7115558888       18.8137649190       14.6758333109
 Br        20.0282594213       20.1168976829       13.3535447824
 Zn         7.9006604899       14.7664767321        8.1055689645
 Br         9.3031482013       13.5469301764        9.4227305691
 Zn         7.9197361971        3.9495841064       18.8877368467
 Br         9.2107102555        2.6128680369       20.2018572669
 Zn        18.7188209463       14.6737098388       18.8219736510
 Br        20.0431960215       13.3577018376       20.1248752944
 Zn        18.7844200367        3.8329191369        7.9914254193
 Br        20.1089716007        2.5211697643        9.3004485578
 Zn        14.6243977443        7.9379080567        7.9644927137
 Br        13.3525928324        9.2519860841        9.3189400494
 Zn        14.6238279616       18.8633007523       18.8748651804
 Br        13.3394906749       20.1914098031       20.2045280144
 Zn         3.7562807886        8.0920996656       18.8791759405
 Br         2.4210332138        9.3747401482       20.2028257178
 Zn         3.7463484983       18.8922515520        8.0698122256
 Br         2.4303283432       20.2174180412        9.3734251673
 Zn        14.5925302643       14.6264431464        8.0088355418
 Br        13.2912020781       13.3000642631        9.3252018310
 Zn        14.6401940228        3.8608195515       18.8216906993
 Br        13.3182649260        2.5558630319       20.1381038682
 Zn         3.7468535914       14.8110484464       18.9266565680
 Br         2.4392133135       13.4906555891       20.2421176873
 Zn         3.8621255115        4.0024087889        8.1039771366
 Br         2.5619719921        2.7099612281        9.4527337688
 Zn         8.0570961105        8.0698395678        7.9096956604
 Br         9.6121716033        9.5241182940        8.7310334768
 Zn         7.8956904584       18.9497734364       18.9189836406
 Br         9.2185730459       20.2571116515       20.2316385017
 Zn        18.7403816932        8.0310674504       18.7964548197
 Br        20.0426983501        9.3582211478       20.1114817505
 Zn        18.7165950149       18.7815267961        8.0564595516
 Br        20.0267003268       20.0993811867        9.3723585331
 Zn        14.6117421029        7.9700094173       14.6551099203
 Br        13.3320498526        9.2800729204       13.3022692245
 Zn        14.6058992374       18.7861657536        3.8929908141
 Br        13.2946119078       20.1101121872        2.5837959439
 Zn         3.7885092922        8.0721568134        3.9061465994
 Br         2.4597815619        9.3824662577        2.6032248094
 Zn         3.7436595346       18.9412598428       14.7715721690
 Br         2.4348701220       20.2641551062       13.4586809941
 Zn         7.8808264491       14.8147879035       14.7868995388
 Br         9.2651248361       13.5689670206       13.4766611174
 Zn         7.8900243726        3.8726664908        3.8483487054
 Br         9.1457677959        2.5219332644        2.5158043334
 Zn        18.7632635732       14.6638799488        3.8941731717
 Br        20.0869520011       13.3648812456        2.5735859000
 Zn        18.7855424770        3.8686491361       14.6780141039
 Br        20.1167376721        2.5492528832       13.3841449528
 Zn         5.8909633873        6.0644758635       16.8167983080
 Zn        16.6444955319       16.7644510370       16.7754203953
 Zn        16.7162368096        5.8891600786        5.9029984999
 Zn         5.8441094272       16.8257206420        6.0231328950
 Zn         5.8969582807        6.0037192845        5.9503923691
 Zn        16.6648331338       16.7119256239        5.9580988477
 Zn         5.8192896983       16.8828159169       16.8553216596
 Zn        16.7014739462        5.9399884210       16.7264980470
  N         3.6963396977        6.0665106290       16.7556696015
  N        14.5319534285        5.8469989999        5.9004604035
  N        18.8289486953       16.7392061109       16.7444768462
  N         8.0290468152       16.8245849654        6.0241098136
  N        18.8970203834        5.9130460938        5.9274112162
  N         8.0681827137        6.0176208857       16.8497199861
  N         3.6600410978       16.8185763070        6.0081618570
  N        14.4571268733       16.7921204974       16.8124217217
  N        16.7367985721        3.7070255128        5.8996924963
  N        16.6151708183       14.5759027811       16.7780880012
  N        16.6702132178       18.9477181744       16.7731090892
  N        16.6825543321        8.0783786794        5.8947221173
  N         5.8280935777       19.0103394300        6.0151314049
  N         5.8561958912        8.2398432831       16.8540849545
  N         5.8962969485        3.8743036261       16.7568461888
  N         5.8328391857       14.6339324529        6.0497459380
  N         5.8629482939       16.8112343782        3.8406502286
  N         5.9632660203        6.1490011532       14.6052475341
  N        16.6746110365       16.7647872518       18.9634930678
  N        16.7090614610        5.8879812019        8.0964710624
  N         5.8266465769        6.0125986344       18.9804884186
  N         5.8353839594       16.8403045017        8.2076994904
  N        16.7294302946        5.8900254268        3.7263915066
  N        16.6091166475       16.7621297706       14.5953906548
  N         5.8610301462        3.8211427660        5.9866842827
  N         5.8022810807       14.6917463826       16.8455480846
  N        16.6657238626       18.8985796960        5.9720196334
  N        16.6555753248        8.1235245626       16.7350862901
  N         5.8181037624       19.0636032458       16.8432618350
  N         5.9042723621        8.1839420605        5.9222651543
  N        16.7143510084        3.7561841481       16.7446532327
  N        16.6805040303       14.5295835426        5.9553044676
  N         3.6359850802       16.8859089949       16.8572935827
  N        14.4794689491       16.7007504738        5.9428845772
  N        18.8515909487       16.7196461109        5.9777907945
  N         8.0060083103       16.8792376473       16.8648429190
  N        18.8846689215        5.9556743231       16.7315231082
  N         8.0818467402        5.9334934150        5.8829569029
  N         3.7059646775        6.0494345349        6.0319627349
  N        14.5152430741        5.8894345693       16.7176429493
  N        16.6975987948        5.9457689472       18.9181465091
  N        16.6435931341       16.7071889511        8.1453843179
  N        16.6816944428       16.7199760064        3.7747528795
  N        16.7177200526        5.9363617637       14.5470998132
  N         5.8229194566        5.9660332340        3.7832845056
  N         5.8175881152       16.8819528069       14.6595988177
  N         5.8214940358       16.8825548864       19.0329691614
  N         5.9926567914        6.0556028907        8.1500183038
  C        11.2090471926       15.7728433503       15.7959374720
  H        11.1881802865       14.9936865427       15.0244831496
  C        11.2950974838        4.8167788184        4.8305950473
  H        11.2863074397        4.0557864907        4.0410406230
  C         0.4575513557       15.7151471817        4.9321245210
  H         0.4779047901       14.9433651171        4.1531774730
  C         0.4919615363        4.9611896255       15.6728395779
  H         0.5092215963        4.1903286136       14.8931211248
  C        11.2898679881        6.9234710563       15.6560752012
  H        11.2897857216        7.6771810799       14.8610243173
  C        11.2615349346       17.8312399196        4.9374115627
  H        11.2674793909       18.6198783523        4.1752990924
  C         0.4758033581        7.0411373553        4.9306292906
  H         0.4733714115        7.8111037194        4.1495056506
  C         0.4067245821       17.8711950710       15.7436355632
  H         0.4010733563       18.6461323025       14.9675730637
  C        11.2471460478       15.6796308577        7.0137277649
  H        11.2405858957       14.8918004840        7.7764739806
  C        11.2921093400        4.8929990131       17.8486834201
  H        11.2940790713        4.1460567789       18.6514715357
  C         0.4180060984       15.7609467412       17.8637517887
  H         0.4236962151       14.9879872641       18.6418128935
  C         0.4850444855        4.9432159318        7.0621347673
  H         0.4868097431        4.1738683279        7.8436278122
  C        11.3195624090        6.8903849798        6.9832275172
  H        11.3283852219        7.6580296995        7.7654064928
  C        11.2549325253       17.9003072818       17.8967870229
  H        11.2746763111       18.6802138287       18.6675309759
  C         0.4479995653        7.0621809607       17.8002540201
  H         0.4299828950        7.8323365842       18.5810401189
  C         0.4141264015       17.8201005478        7.0575880837
  H         0.3939905359       18.5924102560        7.8360728978
  C        15.5468410014       11.3499435045       15.7218630718
  H        14.7593048042       11.3517535621       14.9586594625
  C        15.6519910856        0.4827150631        4.8729805719
  H        14.8794859466        0.4826482231        4.0944022317
  C         4.7997070561       11.4174525370        4.9429592250
  H         4.0285774930       11.4267609001        4.1630744305
  C         4.8098879345        0.6461554573       15.7240046927
  H         4.0418988672        0.6410060224       14.9412378672
  C        15.6106432612       11.2941036551        6.9706328881
  H        14.8305927340       11.2862393408        7.7416094110
  C        15.6392612790        0.5442956462       17.8165845333
  H        14.8673027499        0.5556866891       18.5956974490
  C         4.7603740590       11.4574256369       17.9015091452
  H         3.9906601331       11.4503140027       18.6827652776
  C         4.7849946533        0.6054219586        7.0680479712
  H         4.0174164472        0.6108022716        7.8512335845
  C         6.8606287734       11.4741461305       15.7747786407
  H         7.6419992841       11.4810828963       15.0064359369
  C         6.8751381010        0.5861217362        4.9291091994
  H         7.6404960043        0.5808139080        4.1434436854
  C        17.7425884796       11.3144512156        4.8731650030
  H        18.5240224809       11.3218005332        4.1037345045
  C        17.7421986474        0.5199180901       15.6888140523
  H        18.5126403049        0.5089881819       14.9084674434
  C         6.9035315862       11.3996165702        7.0669123193
  H         7.6848357474       11.3894289925        7.8354305211
  C         6.8996078067        0.6507992941       17.8631259788
  H         7.6656678006        0.6570627678       18.6481177899
  C        17.6984517209       11.3491180913       17.7984049841
  H        18.4875455058       11.3473487966       18.5601376213
  C        17.7561407712        0.4833065543        6.9995016854
  H        18.5269596837        0.4830360795        7.7795971888
  C        15.5500717822       15.6860875807       11.3737331400
  H        14.7683896654       14.9168998746       11.3763613378
  C        15.6699913144        4.8516125054        0.4985039377
  H        14.9004495043        4.0701735854        0.4939634302
  C         4.7878623420       15.7885700758        0.6115544601
  H         4.0115757020       15.0138885680        0.6067985378
  C         4.9240686161        5.0609936146       11.3878843624
  H         4.1382048171        4.2954049968       11.3980192096
  C         6.8978548204       15.8188724207       11.4432558763
  H         7.6829032553       15.0531972783       11.4527998351
  C         6.8580988294        4.9127077765        0.5545075938
  H         7.6292554500        4.1327295167        0.5487753739
  C        17.7334760672       15.6783495132        0.5406177835
  H        18.5048137449       14.8987799517        0.5332769715
  C        17.7663253049        4.8497922557       11.3288177403
  H        18.5354850550        4.0680301591       11.3339308024
  C        15.6703295321        6.9832747979       11.3155100465
  H        14.9019760007        7.7657965696       11.3100440384
  C        15.6299367440       17.8041797595        0.5578268605
  H        14.8586714699       18.5839343502        0.5651053129
  C         4.7514953417        7.0393466134        0.5686826630
  H         3.9797238676        7.8186319779        0.5745162342
  C         4.7686970954       17.9188489415       11.4232898148
  H         3.9897263481       18.6908393169       11.4144283028
  C         7.0745874557        7.1314139351       11.3666520020
  H         7.8659102514        7.8861970728       11.3542201403
  C         6.9035954169       17.9041006135        0.6216934996
  H         7.6792209875       18.6795944531        0.6272701293
  C        17.7653343312        6.9872139363        0.5068123464
  H        18.5322334237        7.7712198346        0.5104948001
  C        17.6837267840       17.7822672157       11.3672819477
  H        18.4664323131       18.5506449571       11.3644175020
 Xe         7.2955190353       10.8906551256       11.4375864070
