     409
 i =      56, E =    -5133.8851513671
  N         2.7952160102        5.2172770201       16.0160571258
  C         1.4756534982        5.4789162207       16.2851351960
  N        13.5892485123        5.1830612196        5.1967056142
  C        12.2732331984        5.4608145171        5.4677715585
  N        19.5177938110       17.5637567315       16.0140255951
  C        20.8364221326       17.3051963857       16.2894707861
  N         8.6896842747       17.5871239763        5.2162519809
  C        10.0062850854       17.3070924825        5.4814950101
  N        19.4602636946        5.1778143690        6.7475828444
  C        20.7769764792        5.4596675488        6.4840238301
  N         8.6519378898        5.2235692543       17.5789343408
  C         9.9698579181        5.4860403258       17.3035186657
  N         2.8179887159       17.5977759963        6.7590605732
  C         1.5016766245       17.3227854188        6.4858516010
  N        13.6613435014       17.5516702527       17.5736261746
  C        12.3423650645       17.2912674637       17.3023337302
  N        15.7427757600        3.0200775008        5.1988611798
  C        16.0212668363        1.7032273798        5.4681829683
  N        15.8094864926       13.8480143528       16.0097625928
  C        16.0756644596       12.5296143546       16.2789999931
  N        15.8052638197       19.7015451836       17.5729496074
  C        16.0608662505       21.0208611324       17.2967100586
  N        15.7568992433        8.8904737040        6.7524375148
  C        16.0386780519       10.2062260576        6.4846065813
  N         6.5322364590       19.7547273609        5.2139411433
  C         6.2471965457       21.0713842332        5.4768538068
  N         6.5009154146        8.9285674627       16.0181722929
  C         6.2394553314       10.2472740711       16.2910746898
  N         6.5004283605        3.0730887559       17.5895251208
  C         6.2404074717        1.7535236694       17.3183406676
  N         6.5213188473       13.8815347999        6.7550235686
  C         6.2440030997       12.5655552811        6.4840726611
  N         4.9846815207       16.0536875257        3.0497395130
  C         5.2598134170       16.3233050811        1.7333573922
  N         4.9467351530        5.2157593979       13.8697036142
  C         5.2116066555        5.4873358195       12.5515066313
  N        17.3711218843       15.9882548328       19.7247314374
  C        17.0978502619       16.2545115008       21.0430034602
  N        17.3079328126        5.1863548305        8.9008621417
  C        17.0413294332        5.4560063303       10.2190722774
  N         4.9334572156        6.7859453547       19.7298596425
  C         5.1995454915        6.5159707603       21.0485424220
  N         4.9764075642       17.5912258976        8.9160729142
  C         5.2507481414       17.3230921796       10.2331272983
  N        17.2964688433        6.7262976805        3.0384683711
  C        17.0278184681        6.4550739162        1.7210230342
  N        17.3689295779       17.5507810963       13.8593557246
  C        17.1004192103       17.2767108084       12.5422790174
  N         4.9268330980        3.0640467622        6.7546396245
  C         5.2062389158        1.7475632272        6.4857605514
  N         4.9832335872       13.8934717022       17.5841844174
  C         5.2429946323       12.5741319242       17.3115577483
  N        17.3370234195       19.7114950213        6.7505248461
  C        17.0557758106       21.0274096651        6.4823018319
  N        17.3323091983        8.8843909730       17.5739861961
  C        17.0747145819       10.2036199714       17.2991249631
  N         4.9885859026       19.7470613054       16.0222717706
  C         5.2473129215       21.0658316154       16.2973376312
  N         4.9323460090        8.9324191613        5.2036624492
  C         5.2121381014       10.2492764503        5.4706329293
  N        17.3152855040        3.0275819138       16.0033971705
  C        17.0530219301        1.7085159478       16.2744457755
  N        17.3582438869       13.8386032879        5.2062480519
  C        17.0777979669       12.5218879055        5.4740413947
  N         2.8398377188       16.0504302257       17.5868236555
  C         1.5214340659       16.3111517075       17.3133719975
  N        13.6408993748       15.9993100716        6.7588779509
  C        12.3238906350       16.2760074704        6.4914972070
  N        19.5115533840       16.0083453254        5.1989356264
  C        20.8273630796       16.2899785113        5.4673779147
  N         8.6959022093       16.0308467611       16.0183723531
  C        10.0150137291       16.2935358662       16.2874711848
  N        19.4686786175        6.7286252734       17.5777550066
  C        20.7875502094        6.4715105182       17.3035073541
  N         8.6421996889        6.7683976026        6.7570942068
  C         9.9583541281        6.4909657655        6.4861435475
  N         2.7700860205        6.7779324308        5.2103057802
  C         1.4534972437        6.4979443664        5.4766095393
  N        13.6124693118        6.7545436934       16.0088816124
  C        12.2936714330        6.4903031388       16.2811400247
  N        15.7511666959        5.1691096297       19.7181731294
  C        16.0166184024        5.4386692432       21.0374569002
  N        15.8036147574       15.9942907429        8.9067042365
  C        16.0803516379       16.2600190346       10.2235932126
  N        15.8006856603       17.5378947777        3.0393545221
  C        16.0748713527       17.2676130896        1.7227987094
  N        15.7661377496        6.7404898499       13.8603651907
  C        16.0321240104        6.4702245979       12.5423363103
  N         6.4775749217        5.2282333779        3.0484577130
  C         6.2095128407        5.4995669032        1.7311355937
  N         6.5418366591       16.0361234464       13.8695086938
  C         6.2704679032       16.3068219957       12.5523021524
  N         6.5566112543       17.6014928507       19.7356028287
  C         6.2842689452       17.3341163897       21.0538022854
  N         6.4888680985        6.7723987311        8.9105589487
  C         6.2208873524        6.5030956742       10.2285560785
  N        19.5005624705       17.5677978832        6.7513704266
  C        20.8201586032       17.3068092304        6.4820300941
  N         8.7051062893       17.5886438297       17.5731339469
  C        10.0212663903       17.3096214262       17.3029706879
  N         2.7765289153        5.2221736974        6.7662601800
  C         1.4579108317        5.4827559875        6.4928398895
  N        13.6074955068        5.1923112831       17.5582936210
  C        12.2907357564        5.4717754901       17.2940111998
  N         2.8341480524       17.6007159354       16.0269010742
  C         1.5173994049       17.3243750314       16.2955629562
  N        13.6451103494       17.5480001985        5.1962983715
  C        12.3270266124       17.2884989214        5.4727945552
  N        19.4777281668        5.1790080556       16.0159616608
  C        20.7940475387        5.4586683310       16.2850584888
  N         8.6331855818        5.2163368942        5.1986805441
  C         9.9522450132        5.4769318169        5.4691920800
  N         6.5469578533       19.7544462405       17.5768962816
  C         6.2638575029       21.0713247026       17.3124580982
  N         6.4912363164        8.9255787425        6.7576358807
  C         6.2288627241       10.2443080625        6.4855526084
  N         6.4803192964        3.0723540501        5.1959705910
  C         6.2209028057        1.7532663119        5.4689988154
  N         6.5360249308       13.8848581943       16.0250843056
  C         6.2570253828       12.5687177152       16.2942878908
  N        15.7558061298        3.0199164955       17.5561114852
  C        16.0362557971        1.7030480572       17.2892500999
  N        15.7948306564       13.8465297189        6.7556011263
  C        16.0581202113       12.5276467017        6.4860596232
  N        15.7882215323       19.7012564193        5.1881193719
  C        16.0437402062       21.0209179569        5.4631758422
  N        15.7832928507        8.8929066994       16.0122090424
  C        16.0623891127       10.2088280040       16.2803415605
  N        17.3081800301        6.7233189436       19.7241643753
  C        17.0332946046        6.4533331254       21.0404886851
  N        17.3567581166       17.5517120959        8.9035436024
  C        17.0947723165       17.2767115944       10.2215802951
  N         4.9195332854        6.7808601778        3.0482801702
  C         5.1923639555        6.5136198012        1.7302610045
  N         4.9890586382       17.5945597492       13.8716988254
  C         5.2569355858       17.3245140872       12.5538155370
  N        17.3581195863       15.9835976622        3.0439671844
  C        17.0910694852       16.2523829202        1.7251091463
  N        17.3226221818        5.1858072242       13.8565984191
  C        17.0484707664        5.4552151606       12.5397034830
  N         4.9959125465       16.0510374547       19.7354739095
  C         5.2651845758       16.3219153162       21.0527911365
  N         4.9325280462        5.2172510887        8.9135859089
  C         5.2048876323        5.4877327435       10.2306660325
  N        17.3564735574       19.7104946095       16.0121333474
  C        17.0743484928       21.0267577341       16.2788371209
  N        17.3124425228        8.8805566111        5.1959550164
  C        17.0553036570       10.1999624986        5.4699817506
  N         4.9477265835        3.0634567171       16.0310628544
  C         5.2259374175        1.7473420875       16.3015713949
  N         4.9690613656       13.8909970695        5.1960056294
  C         5.2297663865       12.5714294512        5.4671080793
  N        17.2988665989        3.0280270148        6.7558263413
  C        17.0360554239        1.7090068313        6.4851045149
  N        17.3685405268       13.8424037275       17.5631183319
  C        17.0918452936       12.5253470540       17.2944563463
  N         4.9728903430       19.7468264927        6.7667732906
  C         5.2302162659       21.0658167045        6.4913977469
  N         4.9439603174        8.9350312126       17.5740186068
  C         5.2238144744       10.2519646600       17.3070540441
  N        19.4543566112        6.7286274696        5.1884274346
  C        20.7727832066        6.4730965431        5.4663714698
  N         8.6543617857        6.7757802599       16.0197685463
  C         9.9717788197        6.5007163572       16.2868363381
  N         2.7845169645        6.7750941650       17.5699686116
  C         1.4685415730        6.4949392217       17.3005358513
  N        13.5988065270        6.7399461137        6.7520406192
  C        12.2795055840        6.4766556821        6.4834589227
  N         2.8270020831       16.0482638942        5.1975282003
  C         1.5081527387       16.3098162777        5.4676341080
  N        13.6526350046       16.0009064887       16.0137631897
  C        12.3363164798       16.2778129911       16.2847088078
  N        19.5242686606       16.0065734699       17.5686730740
  C        20.8407623136       16.2893566570       17.3051139113
  N         8.6833431251       16.0272015229        6.7677608942
  C        10.0022817811       16.2901345407        6.4959968851
  N         6.5452974324       17.6042607112        3.0554854196
  C         6.2789082377       17.3355820018        1.7362118248
  N         6.4996572953        6.7732589761       13.8662035124
  C         6.2263792150        6.5036878241       12.5492250906
  N         6.4933570911        5.2345261399       19.7342342466
  C         6.2173687964        5.5024352285       21.0508274338
  N         6.5287612280       16.0319150953        8.9135620694
  C         6.2640842883       16.3050930563       10.2314589669
  N        15.8158379789       17.5434633722       19.7249350703
  C        16.0823655352       17.2702144114       21.0422863144
  N        15.7518532436        6.7413340654        8.9049275017
  C        16.0251072858        6.4709607499       10.2216506001
  N        15.7392075274        5.1721505343        3.0378326029
  C        16.0110959518        5.4404512477        1.7197805783
  N        15.8124400211       15.9956808043       13.8618445343
  C        16.0847746281       16.2609891518       12.5440759782
 Zn        14.5115460146       14.7104761510       14.7200003348
 Br        13.2095248971       13.3900607315       13.3981476541
 Zn        14.4464849117        3.8848956982        3.9050493224
 Br        13.1294266529        2.5678078872        2.5953795151
 Zn         3.6859884480       14.7629678006        3.8997002806
 Br         2.3709638863       13.4520329713        2.5820287522
 Zn         3.6621309380        3.9190555015       14.7293201847
 Br         2.3428253537        2.6054475620       13.4184020821
 Zn         7.7919742475        8.0647440658       14.7236582241
 Br         9.1149413894        9.3744255285       13.4122366540
 Zn         7.8366658082       18.8900140944        3.9319671430
 Br         9.1536303946       20.2038002906        2.6180037663
 Zn        18.5951156956        8.0144986267        3.8951440123
 Br        19.9088552747        9.3276250777        2.5780189292
 Zn        18.6547185053       18.8519951277       14.7193124849
 Br        19.9676716543       20.1663441678       13.4036667708
 Zn         7.8134799534       14.7306220661        8.0539768489
 Br         9.1297499588       13.4154239117        9.3659693617
 Zn         7.7892932260        3.9427548815       18.8800581123
 Br         9.0999545189        2.6265749219       20.1971154755
 Zn        18.6651210501       14.7049767230       18.8544979069
 Br        19.9784851112       13.3838230549       20.1642899693
 Zn        18.5996357490        3.8913626240        8.0436426099
 Br        19.9107503720        2.5735362913        9.3581467335
 Zn        14.4594778480        8.0344533049        8.0467555702
 Br        13.0949849765        9.3262238688        9.3331633253
 Zn        14.5222753983       18.8348723315       18.8726324966
 Br        13.2115585388       20.1529301890       20.1877643379
 Zn         3.6392767356        8.0720754858       18.8617700957
 Br         2.3291812821        9.3948057134       20.1724205885
 Zn         3.6801183668       18.8827095246        8.0583607784
 Br         2.3683938716       20.1985216775        9.3743891343
 Zn        14.5038942972       14.7085711854        8.0516488639
 Br        13.2011356748       13.3828710610        9.3681749826
 Zn        14.4567121664        3.8862542081       18.8415628090
 Br        13.1399466863        2.5715978818       20.1548704212
 Zn         3.6978888582       14.7621928574       18.8800476154
 Br         2.3829198481       13.4505336255       20.1972913241
 Zn         3.6370669914        3.9258333358        8.0545621580
 Br         2.3236236326        2.6112888608        9.3696983041
 Zn         7.7850366506        8.0616758644        8.0508681517
 Br         9.0941604560        9.3773085731        9.3688907126
 Zn         7.8466947082       18.8884728811       18.8656107994
 Br         9.1684913835       20.2030714789       20.1730430357
 Zn        18.6082001298        8.0129218235       18.8762818034
 Br        19.9240244875        9.3237545052       20.1933987680
 Zn        18.6329265072       18.8586215822        8.0443999245
 Br        19.9508040112       20.1724166287        9.3562478234
 Zn        14.4871842245        8.0453006927       14.7188640881
 Br        13.1878613842        9.3643892972       13.3923563710
 Zn        14.5041279272       18.8301899046        3.8942716100
 Br        13.1933329454       20.1440006568        2.5752119556
 Zn         3.6292306219        8.0704886207        3.9153380279
 Br         2.3173919883        9.3923636598        2.6053627337
 Zn         3.6933825439       18.8853276068       14.7279484382
 Br         2.3812811923       20.2034551460       13.4150068695
 Zn         7.8316417285       14.7377662583       14.7270036021
 Br         9.1426045088       13.4192240522       13.4136715992
 Zn         7.7713006851        3.9357799900        3.9009917117
 Br         9.0791899637        2.6158545771        2.5848526512
 Zn        18.6570664211       14.7030436732        3.9141506766
 Br        19.9689363589       13.3818562799        2.6035790553
 Zn        18.6137007432        3.8926154783       14.7176861861
 Br        19.9268252448        2.5761553757       13.4034168033
 Zn         5.7235410498        6.0035032202       16.8027205642
 Zn        16.5956780159       16.7729131397       16.7872544865
 Zn        16.5172780408        5.9526265825        5.9670623999
 Zn         5.7522751111       16.8215712783        5.9889043215
 Zn         5.7000672236        6.0017927429        5.9838124267
 Zn        16.5737060157       16.7712691023        5.9700178110
 Zn         5.7758016858       16.8227305117       16.8047837521
 Zn        16.5445382149        5.9537360792       16.7853543915
  N         3.5365542850        6.0006560804       16.7932138351
  N        14.3401850126        5.9579331356        5.9738597719
  N        18.7746563428       16.7786470548       16.7877636125
  N         7.9398146944       16.8116582978        5.9935968765
  N        18.7100279764        5.9466686902        5.9639678252
  N         7.9064627170        6.0029896535       16.8015760845
  N         3.5693049945       16.8262036727        5.9790126526
  N        14.4042283299       16.7724254251       16.7939843526
  N        16.5170689816        3.7703064478        5.9775913101
  N        16.5916150892       14.5915726629       16.7863509451
  N        16.5877197891       18.9593187705       16.7953630142
  N        16.5284403643        8.1386229886        5.9722025226
  N         5.7595810536       19.0043424080        5.9939898672
  N         5.7179768750        8.1854760759       16.7945403334
  N         5.7197873780        3.8151930871       16.8102811508
  N         5.7493796547       14.6332449962        5.9756548997
  N         5.7625356624       16.8286336280        3.7994702113
  N         5.7253194979        5.9940145452       14.6150284380
  N        16.5953142464       16.7679300334       18.9777714832
  N        16.5282182064        5.9636842558        8.1557531324
  N         5.7160476772        6.0107219791       18.9853798062
  N         5.7501033540       16.8102819336        8.1682705707
  N        16.5169807948        5.9499547707        3.7848003650
  N        16.5893017715       16.7757587815       14.6072054697
  N         5.6989422071        3.8148806130        5.9742723658
  N         5.7645667563       14.6360056886       16.8056343127
  N        16.5693881853       18.9593969834        5.9672286274
  N        16.5520851873        8.1415837916       16.7949431047
  N         5.7740562176       19.0044664796       16.7964565557
  N         5.7072723068        8.1827489056        5.9821414197
  N        16.5312461671        3.7702107935       16.7787768102
  N        16.5805641334       14.5889607179        5.9814384841
  N         3.5842725304       16.8292465002       16.8081253889
  N        14.3899073512       16.7693103215        5.9749132891
  N        18.7594295325       16.7825391945        5.9757601675
  N         7.9542222408       16.8139011016       16.7958873219
  N        18.7265117556        5.9482333578       16.7984543596
  N         7.8904621991        5.9966411013        5.9777521783
  N         3.5197771855        6.0046570441        5.9900686769
  N        14.3567883328        5.9690138997       16.7816581299
  N        16.5323434772        5.9464422697       18.9742623066
  N        16.5759480971       16.7758444390        8.1580181477
  N        16.5777634425       16.7613887178        3.7882491840
  N        16.5465388352        5.9635088289       14.6051856931
  N         5.6975152078        6.0033741533        3.7953569812
  N         5.7663585309       16.8152709598       14.6175864586
  N         5.7770092970       16.8253447665       18.9887506370
  N         5.7095397355        5.9946908829        8.1654754974
  C        11.1715157644       15.7364405789       15.7358422028
  H        11.1644908504       14.9614880131       14.9598202702
  C        11.1086892915        4.9192371273        4.9185817035
  H        11.1025136876        4.1440242535        4.1427997241
  C         0.3523452139       15.7512318137        4.9167167377
  H         0.3603028251       14.9767796299        4.1401603600
  C         0.3194868168        4.9205150522       15.7341961843
  H         0.3272044307        4.1466358749       14.9571680726
  C        11.1339444309        7.0456130333       15.7348733914
  H        11.1350239732        7.8214566508       14.9597887699
  C        11.1689467866       17.8471410641        4.9268798666
  H        11.1727820663       18.6218733755        4.1505007711
  C         0.2898254991        7.0357771155        4.9221081227
  H         0.2841555043        7.8118419597        4.1471232864
  C         0.3539244373       17.8650973951       15.7431495850
  H         0.3488930357       18.6409242161       14.9679473915
  C        11.1608737485       15.7340247346        7.0440545824
  H        11.1570736903       14.9591162234        7.8200780361
  C        11.1291429508        4.9286969768       17.8481110257
  H        11.1273745190        4.1524079056       18.6229629155
  C         0.3641678172       15.7519986007       17.8605934693
  H         0.3694899726       14.9781408955       18.6377345370
  C         0.3006598107        4.9231738677        7.0399376813
  H         0.3062742014        4.1497970687        7.8175583419
  C        11.1226640323        7.0329783693        7.0349207800
  H        11.1297658138        7.8081249747        7.8107755535
  C        11.1862053345       17.8498289706       17.8526754965
  H        11.1931692803       18.6249409941       18.6285611624
  C         0.3034234476        7.0330998586       17.8516644668
  H         0.2953690363        7.8087638059       18.6270791754
  C         0.3364173891       17.8648211525        7.0333451602
  H         0.3290612997       18.6404601876        7.8086942660
  C        15.5210124653       11.3719500885       15.7282211751
  H        14.7468647434       11.3760090323       14.9513672508
  C        15.4831973320        0.5380565144        4.9159432525
  H        14.7084010268        0.5312995142        4.1397664700
  C         4.6716400845       11.4136587846        4.9190907072
  H         3.8961575744       11.4187226601        4.1436134028
  C         4.6860467694        0.5827161054       15.7508840717
  H         3.9094371350        0.5763351227       14.9764387396
  C        15.4973976287       11.3709153279        7.0334307521
  H        14.7179528037       11.3778615770        7.8047131297
  C        15.4985720656        0.5380418673       17.8421014466
  H        14.7228964712        0.5313723132       18.6174452468
  C         4.6845582899       11.4164305061       17.8594933253
  H         3.9099754458       11.4216860781       18.6358940686
  C         4.6677378259        0.5825448420        7.0371581469
  H         3.8915401438        0.5754592039        7.8119420986
  C         6.7974633939       11.4047004109       15.7427637257
  H         7.5725146896       11.3997546111       14.9668006611
  C         6.7825190159        0.5964782948        4.9223670448
  H         7.5569702172        0.6036568551        4.1458303364
  C        17.6175752950       11.3566683021        4.9238595129
  H        18.3939832206       11.3497778825        4.1492952542
  C        17.6118602901        0.5514442671       15.7258712182
  H        18.3858811432        0.5577736302       14.9489408581
  C         6.7861677453       11.4017908824        7.0343043961
  H         7.5615357454       11.3969255867        7.8099878352
  C         6.8005538879        0.5964459199       17.8659616147
  H         7.5749994031        0.6033748154       18.6424470110
  C        17.6327851403       11.3615433692       17.8466897212
  H        18.4072146822       11.3568510846       18.6232330139
  C        17.5932333780        0.5520361566        7.0353777613
  H        18.3663623754        0.5581054209        7.8132447206
  C        15.5345049510       15.7087070405       11.3850076733
  H        14.7594697367       14.9327629833       11.3869995368
  C        15.4633664999        4.8906532636        0.5577382355
  H        14.6867361016        4.1162719181        0.5565490174
  C         4.7108953633       15.7748454079        0.5721295040
  H         3.9325987179       15.0020894582        0.5705136501
  C         4.6579213866        4.9381448632       11.3925541787
  H         3.8818394168        4.1631842934       11.3948281027
  C         6.8163562509       15.7553687851       11.3908226487
  H         7.5902109845       14.9782013586       11.3890775533
  C         6.7636382453        4.9515803517        0.5721297694
  H         7.5393412225        4.1761994783        0.5739532093
  C        17.6437371147       15.7031941271        0.5650362329
  H        18.4187449167       14.9271657984        0.5666214553
  C        17.5946090544        4.9055082563       11.3775681109
  H        18.3695327448        4.1293812643       11.3747885037
  C        15.4777968817        7.0194714248       11.3836138169
  H        14.6998789485        7.7923247899       11.3871679717
  C        15.5287685158       17.8184914426        0.5613778666
  H        14.7537202608       18.5944700689        0.5596501529
  C         4.6452405298        7.0636483538        0.5683402709
  H         3.8688750004        7.8382988432        0.5666556644
  C         4.7059125844       17.8755548030       11.3945512086
  H         3.9325958016       18.6532895798       11.3960888939
  C         6.7731828459        7.0535469767       11.3875268315
  H         7.5487625622        7.8290142821       11.3851788637
  C         6.8331896134       17.8826185197        0.5759155723
  H         7.6112355322       18.6555615618        0.5772503161
  C        17.5806130347        7.0035320534        0.5616725877
  H        18.3568179225        7.7783872991        0.5631270073
  C        17.6485627817       17.8255180986       11.3805942410
  H        18.4237922018       18.6012830532       11.3785500129
 Xe        16.4000513829       10.9172409060       10.9428614350
