     409
 i =      56, E =    -5133.8782471611
  N         3.0394086220        5.2130198231       16.0354304055
  C         1.7209017980        5.4817617885       16.3015828312
  N        13.8433028118        5.2020689813        5.2020696139
  C        12.5260860174        5.4744450814        5.4744444723
  N        19.7367294342       17.5763669716       16.0199835578
  C        21.0543239613       17.3106967862       16.2948990475
  N         8.9024615124       17.5886824781        5.2182562592
  C        10.2202149266       17.3140039880        5.4825453717
  N        19.7046696909        5.2024930868        6.7588167985
  C        21.0224507733        5.4797613241        6.4955367710
  N         8.9024609255        5.2182607679       17.5886834436
  C        10.2202146513        5.4825503377       17.3140062351
  N         3.0338083731       17.5884309424        6.7713839936
  C         1.7170038688       17.3160574800        6.4985898479
  N        13.8777354440       17.5781701619       17.5781691535
  C        12.5592851905       17.3102389937       17.3102367675
  N        15.9963141013        3.0446054965        5.1990930683
  C        16.2686217044        1.7271381125        5.4684406383
  N        16.0247607586       13.8678866616       16.0192466426
  C        16.2926584022       12.5498784564       16.2891019607
  N        16.0295834690       19.7284555404       17.5747394041
  C        16.2951370574       21.0463694914       17.3024723243
  N        16.0022277415        8.9118603876        6.7581166816
  C        16.2749951605       10.2290218353        6.4885331886
  N         6.7460111852       19.7462270267        5.2209871692
  C         6.4706611367       21.0634275663        5.4888023717
  N         6.7499631754        8.9237341249       16.0322422488
  C         6.4825133268       10.2418575828       16.3029760502
  N         6.7521123732        3.0643203216       17.5953051918
  C         6.4861902768        1.7456564412       17.3245201238
  N         6.7452545199       13.8816205248        6.7688684392
  C         6.4730922303       12.5643219050        6.4992665806
  N         5.1950320822       16.0410548582        3.0602640948
  C         5.4695108832       16.3098619359        1.7432568240
  N         5.1900913634        5.2122749735       13.8837371023
  C         5.4575921464        5.4833744335       12.5655496478
  N        17.5831928082       16.0168526264       19.7308599203
  C        17.3096822528       16.2857267195       21.0482310664
  N        17.5542403821        5.1992677405        8.9093899790
  C        17.2887918997        5.4711266963       10.2273627115
  N         5.1878522681        6.7745942666       19.7433152069
  C         5.4539773086        6.5035682151       21.0616019221
  N         5.1925412849       17.5871595985        8.9263699199
  C         5.4662495492       17.3182018467       10.2436725700
  N        17.5511331324        6.7554536716        3.0464035087
  C        17.2837245590        6.4846064342        1.7285558201
  N        17.5819416801       17.5741341873       13.8650541321
  C        17.3088958671       17.3042816834       12.5479152115
  N         5.1740662591        3.0609338705        6.7713589239
  C         5.4464465443        1.7432124429        6.5022376804
  N         5.2051596604       13.8835277341       17.5901759131
  C         5.4721928263       12.5652500222       17.3194917736
  N        17.5622062622       19.7305716342        6.7537923343
  C        17.2894521374       21.0476477876        6.4837568199
  N        17.5671752313        8.9087866994       17.5772155787
  C        17.3017554961       10.2268418865       17.3053738307
  N         5.2090849889       19.7439529125       16.0367374344
  C         5.4765179332       21.0619393078       16.3077288211
  N         5.1819945644        8.9264283507        5.2162927005
  C         5.4538786758       10.2439845470        5.4854247717
  N        17.5704437985        3.0480994897       16.0154546989
  C        17.3031468031        1.7297462475       16.2852214237
  N        17.5687692455       13.8656283064        5.2027691516
  C        17.2959421747       12.5483668525        5.4724460934
  N         3.0531880314       16.0377738856       17.5928195385
  C         1.7354757637       16.3034628779       17.3189975108
  N        13.8593274525       16.0191841290        6.7571504388
  C        12.5416746992       16.2917340004        6.4899003984
  N        19.7229352674       16.0219586611        5.2038225983
  C        21.0396602114       16.2949098215        5.4766771807
  N         8.9163742830       16.0310915162       16.0310892715
  C        10.2347848378       16.2990870483       16.2990845424
  N        19.7168840219        6.7584015273       17.5792109189
  C        21.0356127309        6.4919854336       17.3109866336
  N         8.8903209023        6.7670154700        6.7670158088
  C        10.2072915190        6.4946205022        6.4946199775
  N         3.0222859620        6.7774579461        5.2217072562
  C         1.7043574201        6.5049213403        5.4892075022
  N        13.8593278878        6.7571505734       16.0191845706
  C        12.5416747950        6.4899028155       16.2917357513
  N        16.0086232778        5.1959726106       19.7276880272
  C        16.2748610578        5.4670556723       21.0458719637
  N        16.0127449992       16.0203642073        8.9116897176
  C        16.2865120305       16.2893598156       10.2288019479
  N        16.0140367606       17.5711155158        3.0444222449
  C        16.2875565164       17.3010603727        1.7274426366
  N        16.0130492733        6.7590294808       13.8677472023
  C        16.2808277619        6.4887381077       12.5498977008
  N         6.7287217677        5.2152406212        3.0625451201
  C         6.4618641119        5.4863978408        1.7446355190
  N         6.7608084851       16.0341741106       13.8806997393
  C         6.4878330104       16.3037849788       12.5634157928
  N         6.7673582817       17.5904017189       19.7460954727
  C         6.4935986170       17.3221037949       21.0636917759
  N         6.7384918083        6.7713151428        8.9251016651
  C         6.4699464869        6.5007519716       10.2430170066
  N        19.7168852255       17.5792115902        6.7584015174
  C        21.0356136575       17.3109879477        6.4919843708
  N         8.9210899609       17.5870632110       17.5870605518
  C        10.2379953005       17.3148014164       17.3147983449
  N         3.0222861832        5.2217043499        6.7774559444
  C         1.7043575935        5.4892052410        6.5049202866
  N        13.8586620699        5.1997594018       17.5742431223
  C        12.5412322215        5.4739303814       17.3072588773
  N         3.0531879722       17.5928199304       16.0377770301
  C         1.7354757448       17.3189973310       16.3034653889
  N        13.8586625737       17.5742410500        5.1997574177
  C        12.5412327175       17.3072558893        5.4739266051
  N        19.7229344978        5.2038212999       16.0219595782
  C        21.0396595350        5.4766772520       16.2949095904
  N         8.8851105531        5.2112178469        5.2112172212
  C        10.2039073069        5.4789473340        5.4789462556
  N         6.7673584718       19.7460969132       17.5904023747
  C         6.4935988188       21.0636932363       17.3221046242
  N         6.7384942884        8.9251026915        6.7713134090
  C         6.4699492565       10.2430181901        6.5007502164
  N         6.7287216649        3.0625455201        5.2152383874
  C         6.4618645613        1.7446356704        5.4863956390
  N         6.7608103193       13.8807002059       16.0341721359
  C         6.4878351927       12.5634161806       16.3037831782
  N        16.0140356802        3.0444218639       17.5711162322
  C        16.2875555656        1.7274419528       17.3010612782
  N        16.0130476158       13.8677469462        6.7590294100
  C        16.2808240534       12.5498976536        6.4887359166
  N        16.0086242255       19.7276868177        5.1959726335
  C        16.2748629815       21.0458705502        5.4670548257
  N        16.0127452364        8.9116889901       16.0203628857
  C        16.2865119655       10.2288015006       16.2893585958
  N        17.5622048791        6.7537923097       19.7305726694
  C        17.2894501097        6.4837577152       21.0476492259
  N        17.5671761132       17.5772163873        8.9087875980
  C        17.3017561269       17.3053745604       10.2268425051
  N         5.1740642191        6.7713590021        3.0609341352
  C         5.4464447326        6.5022384203        1.7432126217
  N         5.2051574904       17.5901775010       13.8835277660
  C         5.4721903880       17.3194934058       12.5652497861
  N        17.5704448655       16.0154537748        3.0480999428
  C        17.3031476723       16.2852204537        1.7297468803
  N        17.5687708707        5.2027696396       13.8656286751
  C        17.2959459949        5.4724484331       12.5483669672
  N         5.2090858590       16.0367356456       19.7439513314
  C         5.4765184832       16.3077271626       21.0619377941
  N         5.1819929458        5.2162934478        8.9264272214
  C         5.4538765825        5.4854259380       10.2439833419
  N        17.5831927884       19.7308593815       16.0168537178
  C        17.3096821146       21.0482304846       16.2857278866
  N        17.5542368946        8.9093895518        5.1992659338
  C        17.2887870738       10.2273624048        5.4711234327
  N         5.1950318569        3.0602657728       16.0410563209
  C         5.4695106601        1.7432583250       16.3098635199
  N         5.1900919639       13.8837380596        5.2122749502
  C         5.4575938074       12.5655509793        5.4833738550
  N        17.5511327360        3.0464019155        6.7554557334
  C        17.2837256249        1.7285543323        6.4846067340
  N        17.5819415634       13.8650533070       17.5741340487
  C        17.3088958620       12.5479145120       17.3042809421
  N         5.1878537878       19.7433153894        6.7745933453
  C         5.4539788806       21.0616017377        6.5035670088
  N         5.1925425305        8.9263701871       17.5871580970
  C         5.4662512947       10.2436729996       17.3182005120
  N        19.7046693119        6.7588179114        5.2024963448
  C        21.0224505550        6.4955374679        5.4797637214
  N         8.9028491160        6.7703461184       16.0302643895
  C        10.2205075133        6.4966706637       16.2969582631
  N         3.0338077624        6.7713861429       17.5884287070
  C         1.7170029464        6.4985919453       17.3160553348
  N        13.8476593549        6.7586493819        6.7586507084
  C        12.5291489943        6.4902788062        6.4902786492
  N         3.0394091297       16.0354310039        5.2130188733
  C         1.7209025936       16.3015838934        5.4817606567
  N        13.8729242403       16.0223923243       16.0223925440
  C        12.5560635647       16.2945967235       16.2945953789
  N        19.7367293566       16.0199813698       17.5763665865
  C        21.0543239166       16.2948970632       17.3106968324
  N         8.9028491229       16.0302656470        6.7703443263
  C        10.2205073079       16.2969575067        6.4966673469
  N         6.7521115276       17.5953051693        3.0643182815
  C         6.4861896871       17.3245194433        1.7456548218
  N         6.7452529260        6.7688688819       13.8816191797
  C         6.4730899493        6.4992676448       12.5643204228
  N         6.7460110270        5.2209900398       19.7462269249
  C         6.4706607234        5.4888048502       21.0634276841
  N         6.7499626031       16.0322441849        8.9237341743
  C         6.4825119083       16.3029776407       10.2418573016
  N        16.0295832886       17.5747382192       19.7284562415
  C        16.2951371320       17.3024711462       21.0463701580
  N        16.0022309416        6.7581184191        8.9118606768
  C        16.2749998403        6.4885363101       10.2290220861
  N        15.9963142244        5.1990914618        3.0446068082
  C        16.2686205017        5.4684405444        1.7271394304
  N        16.0247601822       16.0192475529       13.8678869701
  C        16.2926579013       16.2891032003       12.5498788619
 Zn        14.7282789913       14.7271805965       14.7271805250
 Br        13.4117135219       13.4142119741       13.4142116592
 Zn        14.7053460454        3.9059401869        3.9059412669
 Br        13.3848037442        2.5945149295        2.5945165338
 Zn         3.9006329831       14.7493615687        3.9160936500
 Br         2.5869029444       13.4330936652        2.6024028605
 Zn         3.9006327158        3.9160937886       14.7493616961
 Br         2.5869027742        2.6024019760       13.4330946117
 Zn         8.0420995779        8.0609884246       14.7371887727
 Br         9.3552365478        9.3748004632       13.4208718588
 Zn         8.0446259439       18.8850318044        3.9331331849
 Br         9.3565692066       20.2010166482        2.6167700009
 Zn        18.8416846622        8.0496756815        3.9042312655
 Br        20.1601691058        9.3610075572        2.5905387215
 Zn        18.8761249186       18.8695909139       14.7233145566
 Br        20.1911546221       20.1817240101       13.4077743644
 Zn         8.0420996935       14.7371926675        8.0609883806
 Br         9.3552369922       13.4208752878        9.3747998048
 Zn         8.0446263919        3.9331364968       18.8850319652
 Br         9.3565695016        2.6167735688       20.2010173337
 Zn        18.8761247771       14.7233133723       18.8695912119
 Br        20.1911539038       13.4077732681       20.1817250055
 Zn        18.8416855422        3.9042300098        8.0496764847
 Br        20.1601697124        2.5905380162        9.3610090817
 Zn        14.7115636758        8.0528122964        8.0528129283
 Br        13.3982343946        9.3677965906        9.3677979221
 Zn        14.7390885564       18.8714462794       18.8714469469
 Br        13.4258963922       20.1863592702       20.1863598188
 Zn         3.8960943959        8.0653229759       18.8788243051
 Br         2.5830955522        9.3827344724       20.1922260664
 Zn         3.8960946403       18.8788255081        8.0653218129
 Br         2.5830956873       20.1922275050        9.3827329825
 Zn        14.7194194633       14.7261166269        8.0531203550
 Br        13.4041840712       13.4136341134        9.3681214783
 Zn        14.7186584329        3.9014202952       18.8655195341
 Br        13.4031321856        2.5869388437       20.1782732291
 Zn         3.9127254226       14.7468593864       18.8828749435
 Br         2.6001026258       13.4318865828       20.1992267091
 Zn         3.8875162773        3.9273273560        8.0648685371
 Br         2.5730084699        2.6133005034        9.3812428845
 Zn         8.0318053060        8.0607791335        8.0607789038
 Br         9.3501981450        9.3734918173        9.3734919411
 Zn         8.0609451594       18.8809579413       18.8809578010
 Br         9.3781485763       20.1942865666       20.1942861662
 Zn        18.8548907787        8.0497630010       18.8745404372
 Br        20.1711611540        9.3616606796       20.1895475667
 Zn        18.8548925823       18.8745402890        8.0497632559
 Br        20.1711621771       20.1895483434        9.3616604530
 Zn        14.7194196035        8.0531198415       14.7261157235
 Br        13.4041838292        9.3681204984       13.4136329660
 Zn        14.7186592653       18.8655181192        3.9014202983
 Br        13.4031333144       20.1782716862        2.5869384462
 Zn         3.8875157601        8.0648694677        3.9273294762
 Br         2.5730074321        9.3812430885        2.6133022323
 Zn         3.9127238817       18.8828756764       14.7468627615
 Br         2.6001010574       20.1992271731       13.4318895238
 Zn         8.0538710919       14.7388253801       14.7388220248
 Br         9.3642222747       13.4223896274       13.4223867980
 Zn         8.0171216053        3.9205392785        3.9205373526
 Br         9.3305230818        2.6050155664        2.6050144290
 Zn        18.8666461736       14.7244061060        3.9104099031
 Br        20.1801316368       13.4085371647        2.5973185368
 Zn        18.8666457328        3.9104083337       14.7244065936
 Br        20.1801313435        2.5973164882       13.4085382377
 Zn         5.9652837101        5.9980851319       16.8167380244
 Zn        16.8116406299       16.7960742172       16.7960758568
 Zn        16.7730215663        5.9771660212        5.9771697808
 Zn         5.9652840527       16.8167387562        5.9980841428
 Zn         5.9535820095        5.9977034771        5.9977032641
 Zn        16.7848931979       16.7958957549        5.9766138865
 Zn         5.9922257134       16.8167754495       16.8167750865
 Zn        16.7848925832        5.9766112445       16.7958965879
  N         3.7832975670        5.9931334441       16.8135260965
  N        14.5917843860        5.9793585731        5.9793603234
  N        18.9904043018       16.7957300271       16.7957308694
  N         8.1555536416       16.8117294199        5.9967253678
  N        18.9581222575        5.9769125936        5.9769138268
  N         8.1555534151        5.9967276453       16.8117282416
  N         3.7832982065       16.8135274288        5.9931319274
  N        14.6223107021       16.7992046910       16.7992049837
  N        16.7723672635        3.7923319920        5.9778861863
  N        16.8046048055       14.6131129109       16.7967178716
  N        16.8084349462       18.9827616592       16.7968546774
  N        16.7762419079        8.1636629219        5.9778196455
  N         5.9692303559       18.9982252785        5.9987837366
  N         5.9695930102        8.1785970776       16.8092778118
  N         5.9712535869        3.8091716083       16.8186527756
  N         5.9688939484       14.6294635266        5.9903232882
  N         5.9712531793       16.8186523734        3.8091699179
  N         5.9688933645        5.9903232052       14.6294622821
  N        16.8084349158       16.7968536425       18.9827623664
  N        16.7762443398        5.9778204814        8.1636634018
  N         5.9692296055        5.9987856712       18.9982252407
  N         5.9695925144       16.8092798506        8.1785967811
  N        16.7723683555        5.9778832916        3.7923336202
  N        16.8046044842       16.7967181921       14.6131134646
  N         5.9502425424        3.8086954793        5.9927694297
  N         5.9846024559       14.6289371163       16.8125094734
  N        16.7869495928       18.9822702920        5.9746633148
  N        16.7877110163        8.1633158903       16.7997206473
  N         5.9898103870       18.9984932275       16.8128831684
  N         5.9591998150        8.1791670453        5.9942171752
  N        16.7905882321        3.7928998702       16.7933207352
  N        16.7918982698       14.6133114835        5.9809469572
  N         3.8004255827       16.8173846454       16.8173860110
  N        14.6054295647       16.7952954071        5.9767462235
  N        18.9730855494       16.7995134007        5.9795597927
  N         8.1722364305       16.8101927048       16.8101903937
  N        18.9730846044        5.9795585780       16.7995139602
  N         8.1409143676        5.9903057388        5.9903059201
  N         3.7689514543        6.0006625256        6.0006628734
  N        14.6054294967        5.9767458946       16.7952956988
  N        16.7869491292        5.9746623554       18.9822714300
  N        16.7877109243       16.7997222082        8.1633167640
  N        16.7905892323       16.7933199845        3.7929004561
  N        16.7918988630        5.9809461805       14.6133117561
  N         5.9502417305        5.9927704253        3.8086954732
  N         5.9846007432       16.8125113182       14.6289368238
  N         5.9898107467       16.8128820105       18.9984918128
  N         5.9591980263        5.9942181806        8.1791659431
  C        11.3933671737       15.7471232485       15.7471214903
  H        11.3901361277       14.9716063418       14.9716051435
  C        11.3628960647        4.9271810530        4.9271796859
  H        11.3596112792        4.1516835720        4.1516818711
  C         0.5629559160       15.7485693232        4.9294935195
  H         0.5675957360       14.9732388413        4.1538021776
  C         0.5629552604        4.9294936940       15.7485690832
  H         0.5675951219        4.1538015578       14.9732393880
  C        11.3813889317        7.0425700477       15.7441656022
  H        11.3819213007        7.8177772697       14.9683612133
  C        11.3802661668       17.8605719752        4.9286194126
  H        11.3795218614       18.6365788260        4.1535681841
  C         0.5434397919        7.0506348995        4.9357896126
  H         0.5435783388        7.8265366992        4.1606759760
  C         0.5750159001       17.8649303030       15.7497796653
  H         0.5753168488       18.6410377189       14.9748504479
  C        11.3813884116       15.7441648700        7.0425676328
  H        11.3819200426       14.9683616004        7.8177759655
  C        11.3802653026        4.9286249529       17.8605758176
  H        11.3795202409        4.1535749947       18.6365839284
  C         0.5750157478       15.7497761976       17.8649291897
  H         0.5753164365       14.9748453719       18.6410349912
  C         0.5434401242        4.9357854377        7.0506321829
  H         0.5435788607        4.1606694126        7.8265315976
  C        11.3701914295        7.0419755964        7.0419752880
  H        11.3730388982        7.8174945750        7.8174947476
  C        11.4007545251       17.8622029549       17.8621994782
  H        11.4039041903       18.6377075498       18.6377032761
  C         0.5536455233        7.0453323963       17.8628650261
  H         0.5494443309        7.8211064571       18.6381004759
  C         0.5536464615       17.8628675368        7.0453300460
  H         0.5494454081       18.6381037959        7.8211033189
  C        15.7399733943       11.3906689653       15.7393740990
  H        14.9642629636       11.3927056911       14.9640756794
  C        15.7220146048        0.5653987112        4.9179450892
  H        14.9463330611        0.5635869644        4.1426016397
  C         4.9058414063       11.4051900853        4.9349448017
  H         4.1299941176       11.4056221838        4.1597691907
  C         4.9226651490        0.5814847548       15.7598048375
  H         4.1460378793        0.5796070776       14.9853667334
  C        15.7287676732       11.3907264754        7.0390718693
  H        14.9538568039       11.3926700904        7.8151897310
  C        15.7416272859        0.5654973493       17.8514662212
  H        14.9662504600        0.5631484144       18.6271297481
  C         4.9196513579       11.4055612965       17.8685170750
  H         4.1443279440       11.4071597147       18.6442077047
  C         4.9001254826        0.5810397909        7.0522227029
  H         4.1243891117        0.5786954567        7.8275092990
  C         7.0349511001       11.4016106289       15.7538640503
  H         7.8105240922       11.4000137566       14.9784042254
  C         7.0158146437        0.5854862766        4.9377317658
  H         7.7911654052        0.5880012222        4.1620319544
  C        17.8415626473       11.3865312774        4.9213870455
  H        18.6160541378       11.3843076922        4.1448482185
  C        17.8553558659        0.5703516655       15.7350568724
  H        18.6299761670        0.5725459063       14.9586701484
  C         7.0211993073       11.4032523759        7.0497240866
  H         7.7967650025       11.4025942839        7.8252040077
  C         7.0400152266        0.5858483008       17.8723873128
  H         7.8159752568        0.5877400178       18.6474125931
  C        17.8554252098       11.3859817498       17.8542468445
  H        18.6311960884       11.3837816777       18.6295115479
  C        17.8358120265        0.5692200295        7.0344913690
  H        18.6107032344        0.5711419244        7.8106443025
  C        15.7399725382       15.7393760044       11.3906693145
  H        14.9642615281       14.9640782243       11.3927057223
  C        15.7220130479        4.9179454345        0.5654000137
  H        14.9463316556        4.1426018101        0.5635881760
  C         4.9226660548       15.7598026341        0.5814831244
  H         4.1460395195       14.9853637596        0.5796053174
  C         4.9058397120        4.9349454183       11.4051888807
  H         4.1299929497        4.1597693221       11.4056208698
  C         7.0349493303       15.7538657350       11.4016105717
  H         7.8105224757       14.9784060096       11.4000141064
  C         7.0158149782        4.9377348019        0.5854861252
  H         7.7911667545        4.1620360162        0.5880009792
  C        17.8553561718       15.7350556144        0.5703521247
  H        18.6299762457       14.9586686831        0.5725461057
  C        17.8415678113        4.9213905756       11.3865315631
  H        18.6160594504        4.1448518933       11.3843078738
  C        15.7287724199        7.0390752204       11.3907266478
  H        14.9538613861        7.8151929743       11.3926701413
  C        15.7416276711       17.8514650257        0.5654981070
  H        14.9662507157       18.6271283825        0.5631494630
  C         4.9001229519        7.0522228642        0.5810399519
  H         4.1243854873        7.8275083135        0.5786957924
  C         4.9196490535       17.8685183393       11.4055608350
  H         4.1443254470       18.6442087835       11.4071588196
  C         7.0211963570        7.0497260034       11.4032511645
  H         7.7967616511        7.8252063027       11.4025931284
  C         7.0400144426       17.8723869905        0.5858467229
  H         7.8159739604       18.6474128113        0.5877385575
  C        17.8358105519        7.0344916357        0.5692214687
  H        18.6107020748        7.8106443255        0.5711434645
  C        17.8554254444       17.8542476496       11.3859826070
  H        18.6311965149       18.6295121191       11.3837828091
 Xe         0.5314374623       10.2845550914       10.2845539407
