     409
 i =      56, E =    -5133.8505263780
  N         2.7265329414        5.2509245759       16.0328944187
  C         1.4107912638        5.5205150724       16.3022056462
  N        13.5008142721        5.1899803847        5.1974382950
  C        12.1880761362        5.4705825630        5.4739254393
  N        19.4608086052       17.5329448855       15.9873134163
  C        20.7796666689       17.2785466145       16.2679573784
  N         8.6184055565       17.5877015617        5.2124666147
  C         9.9328949600       17.3063336102        5.4806710040
  N        19.3760112436        5.1645685991        6.7376335957
  C        20.6908657625        5.4569257386        6.4740842552
  N         8.5826034223        5.2192422815       17.5798756192
  C         9.8983630181        5.4840792400       17.3025735203
  N         2.7523684340       17.6172854651        6.7842659280
  C         1.4363499709       17.3401895097        6.5076118874
  N        13.6045615274       17.5564659289       17.5647440797
  C        12.2877484319       17.2913932952       17.2953217579
  N        15.6364586021        3.0184205487        5.1950220567
  C        15.9134394826        1.7021415119        5.4690668259
  N        15.7287289147       13.8378218769       16.0000046257
  C        15.9951965216       12.5214919618       16.2720772468
  N        15.7558989116       19.6936750899       17.5663955135
  C        16.0073699263       21.0135590929       17.2938079839
  N        15.6751852613        8.8857579162        6.7504976452
  C        15.9544420848       10.1991953020        6.4769863674
  N         6.4721010868       19.7662781376        5.2259929487
  C         6.1801584436       21.0794077415        5.5005161856
  N         6.4511958361        8.9388239771       16.0259049051
  C         6.1865772015       10.2551352171       16.2992517606
  N         6.4207597888        3.0837561330       17.5893636350
  C         6.1514316853        1.7677967167       17.3175605306
  N         6.4538295430       13.8907027602        6.7765496707
  C         6.1729284789       12.5773630511        6.5043695544
  N         4.8979216331       16.0499465880        3.0646037876
  C         5.1745716603       16.3223746752        1.7487311591
  N         4.8661100105        5.2391442777       13.8813489410
  C         5.1362672904        5.5112472565       12.5657248433
  N        17.3061693371       15.9812236306       19.7165711831
  C        17.0247746238       16.2549503749       21.0319537904
  N        17.2199089554        5.1702137850        8.8947057968
  C        16.9511827230        5.4437769644       10.2104401634
  N         4.8840098411        6.8025477203       19.7415385192
  C         5.1459638682        6.5296658991       21.0600460785
  N         4.9207984861       17.6054579699        8.9296800047
  C         5.1969512321       17.3320408190       10.2436286813
  N        17.2101759157        6.7301499699        3.0361728566
  C        16.9368581600        6.4589629920        1.7206511148
  N        17.3016421543       17.5377950565       13.8473758641
  C        17.0248616861       17.2652238248       12.5329825327
  N         4.8321352591        3.0799324083        6.7774031622
  C         5.1082707246        1.7636926501        6.5024040113
  N         4.9249779751       13.8988820399       17.5883424436
  C         5.1897671291       12.5826535025       17.3148049326
  N        17.2824215711       19.7054276834        6.7390435125
  C        16.9894970819       21.0181311030        6.4654802602
  N        17.2608117890        8.8776428232       17.5561018933
  C        16.9962911130       10.1937930864       17.2825126593
  N         4.9435486285       19.7548665462       16.0221765467
  C         5.1970751750       21.0749621973       16.2926950228
  N         4.8622324551        8.9472971945        5.2213837768
  C         5.1433683223       10.2608011363        5.4935934930
  N        17.2272371679        3.0229597937       15.9928647397
  C        16.9572442850        1.7065532433       16.2638305790
  N        17.2605438561       13.8301428771        5.1886811702
  C        16.9795269350       12.5162200490        5.4610256052
  N         2.7861298223       16.0622543376       17.5989869284
  C         1.4702164155       16.3324264349       17.3251026339
  N        13.5666449847       15.9990507369        6.7564934425
  C        12.2524786413       16.2789485725        6.4873832062
  N        19.4423913137       15.9801419603        5.1951493190
  C        20.7538134055       16.2732246961        5.4789268855
  N         8.6402416765       16.0272937770       16.0203170041
  C         9.9573171187       16.2926320468       16.2893654720
  N        19.3935679672        6.7302451479       17.5629976077
  C        20.7154302572        6.4790039989       17.3003084383
  N         8.5617384862        6.7778239263        6.7706011785
  C         9.8743376554        6.4976244217        6.4940170722
  N         2.6928425546        6.8135376615        5.2316383085
  C         1.3766552798        6.5379849310        5.5046151818
  N        13.5390968924        6.7492668006       16.0060187051
  C        12.2234851310        6.4839819077       16.2823790986
  N        15.6835408079        5.1726401646       19.7113657616
  C        15.9475018708        5.4438470861       21.0299245618
  N        15.7217890002       15.9862703333        8.8990709257
  C        15.9998354623       16.2571813904       10.2132923250
  N        15.7134216024       17.5419749016        3.0344070988
  C        15.9872594301       17.2665245333        1.7187425997
  N        15.6825560188        6.7362716577       13.8510221734
  C        15.9501293469        6.4619645275       12.5354634241
  N         6.3939279251        5.2301494397        3.0664882401
  C         6.1240090236        5.5042396278        1.7507894012
  N         6.4859581824       16.0394208407       13.8767319894
  C         6.2113628349       16.3135968263       12.5626226187
  N         6.5057612659       17.5965600477       19.7459932023
  C         6.2227884105       17.3237516542       21.0615211193
  N         6.4188318287        6.7900048566        8.9253244828
  C         6.1482212409        6.5188207450       10.2408741441
  N        19.4254073157       17.5407829533        6.7529991369
  C        20.7473961642       17.2875185603        6.4922299722
  N         8.6525036536       17.5869903868       17.5786931062
  C         9.9655781864       17.3061222521       17.3024049529
  N         2.6947137644        5.2544403254        6.7907402992
  C         1.3787699729        5.5252903913        6.5175799554
  N        13.5344755944        5.1896748839       17.5639497499
  C        12.2204878904        5.4705668673       17.2952146213
  N         2.7840108035       17.6204925322       16.0392376817
  C         1.4680185025       17.3447488335       16.3119987245
  N        13.5704775982       17.5564063986        5.1964874874
  C        12.2551138115       17.2915625173        5.4738695047
  N        19.4102383506        5.1722125755       16.0025329172
  C        20.7216938197        5.4656139277       16.2861151961
  N         8.5490428416        5.2193276026        5.2117199468
  C         9.8660214927        5.4846188437        5.4808658184
  N         6.5064348139       19.7656377378       17.5776767623
  C         6.2135068111       21.0790612581       17.3038921547
  N         6.4253290267        8.9389578406        6.7760220476
  C         6.1593112413       10.2552793497        6.5039655187
  N         6.3867215331        3.0834038194        5.2140255828
  C         6.1180093803        1.7677649348        5.4866214679
  N         6.4794064318       13.8904254734       16.0257656853
  C         6.2000881585       12.5770732791       16.2990253433
  N        15.6703360271        3.0179443344       17.5542802431
  C        15.9466485662        1.7019274502       17.2789827693
  N        15.7036561833       13.8378181476        6.7496737782
  C        15.9683118976       12.5214694304        6.4762735677
  N        15.7211324022       19.6935629275        5.1824528104
  C        15.9736704984       21.0136884516        5.4539929707
  N        15.7003413440        8.8858109377       15.9995084952
  C        15.9812857579       10.1992134466       16.2714685148
  N        17.2495195692        6.7249328343       19.7177000917
  C        16.9662511484        6.4524018538       21.0322118758
  N        17.2866006971       17.5391414857        8.8950982816
  C        17.0177280912       17.2655370923       10.2106668519
  N         4.8429844516        6.7972134760        3.0651488357
  C         5.1167311266        6.5226230514        1.7488806823
  N         4.9351533049       17.6055942764       13.8808114278
  C         5.2036389653       17.3320129035       12.5653614489
  N        17.2664719040       15.9765798442        3.0377392598
  C        16.9952603073       16.2487506769        1.7212280908
  N        17.2344807934        5.1710103109       13.8476159620
  C        16.9582233141        5.4438320392       12.5330127660
  N         4.9390536328       16.0444483349       19.7417094106
  C         5.2037915166       16.3152531176       21.0598291197
  N         4.8521467996        5.2393190027        8.9294343553
  C         5.1296492991        5.5112216739       10.2435929605
  N        17.3101507250       19.7045404331       16.0027181673
  C        17.0181478968       21.0176982221       16.2772323362
  N        17.2292914388        8.8776484854        5.1870103374
  C        16.9645928337       10.1937848112        5.4609954170
  N         4.8589337311        3.0795252295       16.0332148342
  C         5.1365476382        1.7634620345       16.3068947894
  N         4.8916736865       13.8992309717        5.2213044232
  C         5.1573260502       12.5829358191        5.4938042208
  N        17.2003933963        3.0223888836        6.7494376447
  C        16.9290652311        1.7064481759        6.4791834660
  N        17.2922588293       13.8299458270       17.5545306131
  C        17.0112761066       12.5160843796       17.2824544594
  N         4.9165615121       19.7549525085        6.7888418582
  C         5.1689200019       21.0751521711        6.5168560632
  N         4.8958468686        8.9473012213       17.5881748359
  C         5.1759611965       10.2607063550       17.3149159755
  N        19.3704351854        6.7234411083        5.1782667109
  C        20.6887769813        6.4706759454        5.4602164373
  N         8.5874816531        6.7770888873       16.0199269885
  C         9.9014437877        6.4968780269       16.2890347104
  N         2.7208107232        6.8105929278       17.5912792695
  C         1.4045241732        6.5333229548       17.3148943747
  N        13.5134603212        6.7490322730        6.7559288775
  C        12.1963822801        6.4838148605        6.4869823457
  N         2.7585560535       16.0596809837        5.2238026877
  C         1.4428133473       16.3281059401        5.4942674536
  N        13.5919683726       15.9985125804       16.0054961276
  C        12.2794217430       16.2786202315       16.2820822016
  N        19.4665138835       15.9726810796       17.5463929582
  C        20.7817934744       16.2642858113       17.2817668517
  N         8.6147216840       16.0271187848        6.7698211829
  C         9.9303027585       16.2925591065        6.4933378152
  N         6.4639124825       17.6022295648        3.0675562173
  C         6.1924734884       17.3301977370        1.7511168295
  N         6.4329058497        6.7901669664       13.8771119933
  C         6.1548673849        6.5189474100       12.5629734949
  N         6.4352634856        5.2357231201       19.7474949150
  C         6.1542236258        5.5105934649       21.0622430079
  N         6.4722846660       16.0396312701        8.9253166575
  C         6.2048480742       16.3137876926       10.2408284162
  N        15.7546571463       17.5477189877       19.7121920591
  C        16.0163972743       17.2738757633       21.0301885173
  N        15.6686664173        6.7367504413        8.8989676668
  C        15.9433955958        6.4622750181       10.2131464664
  N        15.6428052807        5.1790826743        3.0352342602
  C        15.9185188166        5.4516084300        1.7189233155
  N        15.7351883122       15.9863471173       13.8511603545
  C        16.0064140252       16.2573557963       12.5355946859
 Zn        14.4025278714       14.6670569297       14.6762303436
 Br        13.0726440745       13.3553733865       13.3611466443
 Zn        14.3158372593        3.8559231303        3.8698173126
 Br        12.9818685087        2.5473367510        2.5538514872
 Zn         3.5701426480       14.7283357252        3.8964224668
 Br         2.2364937104       13.4178476277        2.5820940971
 Zn         3.5366009956        3.9171002518       14.7096461689
 Br         2.2046168960        2.6082164100       13.3918398234
 Zn         7.7697371066        8.1094171194       14.6981511408
 Br         9.0920796078        9.4201286899       13.3730861864
 Zn         7.7950114583       18.9249083953        3.8937326188
 Br         9.1218795115       20.2300042678        2.5667551603
 Zn        18.5468842122        8.0490065268        3.8548920055
 Br        19.8705964148        9.3605387070        2.5331258274
 Zn        18.6320546674       18.8631665119       14.6678307444
 Br        19.9597722286       20.1690633393       13.3433749076
 Zn         7.7885837578       14.7076061677        8.1002297783
 Br         9.1038021698       13.3789181023        9.4143079286
 Zn         7.7520437330        3.9007364015       18.9125042536
 Br         9.0707164278        2.5720561934       20.2239448774
 Zn        18.6261273822       14.6507240057       18.8779993787
 Br        19.9409676517       13.3194559042       20.1917653969
 Zn        18.5407768824        3.8403313482        8.0649407733
 Br        19.8509545431        2.5106153931        9.3838408020
 Zn        14.3460287081        8.0687353832        8.0780620769
 Br        13.0400568518        9.3969417859        9.4027098779
 Zn        14.4372979937       18.8769379623       18.8892720020
 Br        13.1289172047       20.2047235156       20.2125600416
 Zn         3.5655757505        8.1297298265       18.9169040857
 Br         2.2595143039        9.4593727578       20.2401676284
 Zn         3.5939566391       18.9348537255        8.1120797755
 Br         2.2897267379       20.2659926246        9.4347422012
 Zn        14.3867784779       14.6667973323        8.0781185092
 Br        13.0628724944       13.3563812635        9.4026670088
 Zn        14.3524576265        3.8537689696       18.8845029526
 Br        13.0290366207        2.5453371377       20.2104605171
 Zn         3.6092916968       14.7270298894       18.9194082435
 Br         2.2834743006       13.4169525939       20.2418267626
 Zn         3.5173927894        3.9185502572        8.1098442969
 Br         2.1923970057        2.6089101600        9.4332848320
 Zn         7.7479594398        8.1096029468        8.1002609692
 Br         9.0809682510        9.4202944522        9.4143778857
 Zn         7.8369485880       18.9220813942       18.9047009305
 Br         9.1704878832       20.2291160410       20.2217951043
 Zn        18.5781622871        8.0502455657       18.8849086655
 Br        19.9155365288        9.3604443729       20.1963688180
 Zn        18.6096417247       18.8680126339        8.0674246609
 Br        19.9468617250       20.1711851320        9.3856305093
 Zn        14.3669775957        8.0686707423       14.6755676751
 Br        13.0508361574        9.3970755965       13.3618116819
 Zn        14.3952052980       18.8748500341        3.8633445796
 Br        13.0801530512       20.2044892106        2.5503963116
 Zn         3.5254607555        8.1284879949        3.8984493109
 Br         2.2119772131        9.4589774767        2.5837718477
 Zn         3.6164333956       18.9357285387       14.7070597948
 Br         2.3023997340       20.2657533993       13.3911447827
 Zn         7.8047481958       14.7070633473       14.6973276822
 Br         9.1138564453       13.3797470014       13.3738744171
 Zn         7.7163059026        3.8987103749        3.8890433870
 Br         9.0229422718        2.5711852055        2.5643338859
 Zn        18.5955367367       14.6521011217        3.8640356988
 Br        19.8947704633       13.3194956208        2.5374196383
 Zn        18.5608694358        3.8433202878       14.6703185049
 Br        19.8625799887        2.5119880709       13.3446981953
 Zn         5.6570642629        6.0136437610       16.8105897403
 Zn        16.5294965231       16.7635016043       16.7764112849
 Zn        16.4376206581        5.9518919919        5.9648171069
 Zn         5.6871281477       16.8248610454        6.0007250541
 Zn         5.6259948526        6.0134832930        6.0000037001
 Zn        16.4987525172       16.7641990841        5.9661613767
 Zn         5.7209894353       16.8244404477       16.8100813337
 Zn        16.4641131500        5.9519819146       16.7778222790
  N         3.4700326144        6.0303935826       16.8135562381
  N        14.2533588240        5.9653855787        5.9747029893
  N        18.7175340445       16.7453942408       16.7619360985
  N         7.8704476956       16.8114440129        5.9934865982
  N        18.6265836363        5.9361761536        5.9524391277
  N         7.8388879709        6.0024750631       16.8019393817
  N         3.5018347825       16.8387746017        6.0050582872
  N        14.3447309242       16.7736621815       16.7832319732
  N        16.4193717774        3.7666246062        5.9705302133
  N        16.5142439742       14.5799574858       16.7771971480
  N        16.5400058708       18.9524098155       16.7867531601
  N        16.4484291508        8.1353077370        5.9685984627
  N         5.7009479327       19.0141718688        6.0091708210
  N         5.6694256384        8.1968830672       16.8070875243
  N         5.6400954367        3.8280573497       16.8101398987
  N         5.6768342345       14.6413238641        5.9988895205
  N         5.6805899733       16.8255102198        3.8124175913
  N         5.6515502965        6.0145482309       14.6254609563
  N        16.5337266701       16.7660249969       18.9677110134
  N        16.4425692906        5.9536767435        8.1505631511
  N         5.6628633299        6.0196486023       18.9979735757
  N         5.6942831680       16.8224953165        8.1812441781
  N        16.4272828064        5.9540084282        3.7819218130
  N        16.5198991335       16.7624005821       14.5954349055
  N         5.6102135223        3.8280641292        5.9969531689
  N         5.7062881265       14.6410656370       16.8072365632
  N        16.5089766650       18.9528117781        5.9588008123
  N        16.4765291172        8.1353498163       16.7781720272
  N         5.7313248841       19.0138275898       16.7981190084
  N         5.6396405375        8.1969911200        5.9988172226
  N        16.4493467981        3.7665720748       16.7755157065
  N        16.4860775264       14.5800695878        5.9695151216
  N         3.5316419983       16.8402981506       16.8176318825
  N        14.3149256537       16.7738609682        5.9742557654
  N        18.6874786918       16.7548564584        5.9723495584
  N         7.9004675661       16.8110782646       16.8012666056
  N        18.6554577318        5.9452751484       16.7815697796
  N         7.8090580692        6.0026132065        5.9931770538
  N         3.4400120794        6.0322898110        6.0092184027
  N        14.2828766394        5.9651290528       16.7829419489
  N        16.4701349289        5.9480911181       18.9680205922
  N        16.5019480810       16.7632410889        8.1508338185
  N        16.4902753802       16.7608297627        3.7822569728
  N        16.4604217383        5.9539320572       14.5954937584
  N         5.6187964686        6.0139567073        3.8121709060
  N         5.7123829941       16.8225199971       14.6251489397
  N         5.7250887485       16.8195806080       18.9974795148
  N         5.6335010316        6.0146260873        8.1811235780
  C        11.1134854993       15.7398485429       15.7399429897
  H        11.1068203054       14.9668034541       14.9668497016
  C        11.0221840232        4.9319299872        4.9317087955
  H        11.0154304947        4.1589417326        4.1586969809
  C         0.2906498061       15.7688685537        4.9418119086
  H         0.2960322052       15.0044038456        4.1659229033
  C         0.2587346589        4.9614693500       15.7492489140
  H         0.2642601102        4.1968215408       14.9735555250
  C        11.0639817285        7.0362220096       15.7398812056
  H        11.0662626961        7.8093017400       14.9668107719
  C        11.0958323966       17.8445617966        4.9316227912
  H        11.0985621980       18.6175589175        4.1586062784
  C         0.2094588500        7.0686456558        4.9542364943
  H         0.2139726510        7.8582550239        4.1955261651
  C         0.3007805240       17.8756982647       15.7617334866
  H         0.3057193307       18.6654887145       15.0032021959
  C        11.0896657943       15.7399599834        7.0361032793
  H        11.0873762870       14.9668963803        7.8091997607
  C        11.0579454354        4.9316459817       17.8445410258
  H        11.0558586532        4.1586310580       18.6175333153
  C         0.3103705306       15.7746760048       17.8637406056
  H         0.3153610686       15.0185638019       18.6516883064
  C         0.2191266598        4.9674823312        7.0564069311
  H         0.2238765735        4.2112015281        7.8441774634
  C        11.0402192831        7.0364871954        7.0362667205
  H        11.0469874247        7.8095237145        7.8093351811
  C        11.1317204776       17.8443892127       17.8445098184
  H        11.1389258453       18.6173797242       18.6175193015
  C         0.2301100395        7.0624558839       17.8515139322
  H         0.2347779529        7.8439695454       18.6225312570
  C         0.2621670763       17.8700475160        7.0439604282
  H         0.2669754567       18.6516925106        7.8148527075
  C        15.4411368411       11.3636687276       15.7274506191
  H        14.6659213676       11.3680997818       14.9565749217
  C        15.3817901938        0.5314801205        4.9268679274
  H        14.5941697756        0.5358982573        4.1641260067
  C         4.6031469381       11.4251676125        4.9495717947
  H         3.8280143614       11.4297826448        4.1786879815
  C         4.6051477865        0.5926023674       15.7649197110
  H         3.8173065195        0.5970224858       15.0022816245
  C        15.4170136040       11.3636700207        7.0238241418
  H        14.6460365881       11.3681696969        7.7990278928
  C        15.4180214769        0.5312425752       17.8240894101
  H        14.6345166131        0.5355599633       18.5911775290
  C         4.6387227826       11.4249268167       17.8621217752
  H         3.8678852960       11.4294857527       18.6373167655
  C         4.5799248763        0.5929075770        7.0473473089
  H         3.7964024006        0.5973468922        7.8142599352
  C         6.7376810720       11.4129081180       15.7518604176
  H         7.5086174409       11.4084770544       14.9766931470
  C         6.6753095799        0.6120437019        4.9392482155
  H         7.4334390209        0.6171331718        4.1551730979
  C        17.5160361751       11.3515812071        4.9138770843
  H        18.2867674578       11.3466620555        4.1386315215
  C        17.5136494291        0.5504280411       15.7162585527
  H        18.2717284847        0.5551093478       14.9322484214
  C         6.7133481149       11.4130511347        7.0484413937
  H         7.4885412271       11.4085077989        7.8193580427
  C         6.7116644312        0.6119980870       17.8618477161
  H         7.4740923987        0.6171400924       18.6416269055
  C        17.5510292344       11.3514689560       17.8265695515
  H        18.3262276449       11.3464867718       18.5974342169
  C        17.4884795124        0.5505320640        7.0237728074
  H        18.2511107340        0.5551498821        7.8034371349
  C        15.4545123295       15.7144080473       11.3760068458
  H        14.6768819417       14.9459099935       11.3781763830
  C        15.3778422529        4.9105784788        0.5520038939
  H        14.5942957469        4.1459575973        0.5565511755
  C         4.6340371361       15.7813480266        0.5817413772
  H         3.8502113843       15.0167167735        0.5861778770
  C         4.5841090061        4.9687800888       11.4062082289
  H         3.8067066315        4.2001713566       11.4082859823
  C         6.7509739664       15.7648735202       11.4001706546
  H         7.5195394973       14.9873765186       11.3979849563
  C         6.6724982583        4.9559072991        0.5912917702
  H         7.4350137177        4.1740739663        0.5959999992
  C        17.5430830574       15.7004351104        0.5612431005
  H        18.3056172399       14.9187475693        0.5658318063
  C        17.4970105544        4.8949648667       11.3701073619
  H        18.2654926844        4.1174754623       11.3678659186
  C        15.4039158521        7.0108430492       11.3759318528
  H        14.6352804167        7.7883780943       11.3781977687
  C        15.4525277517       17.8137301155        0.5520160763
  H        14.6777691543       18.5875239777        0.5564730356
  C         4.5823486691        7.0697322937        0.5819697165
  H         3.8074432642        7.8432098838        0.5863416343
  C         4.6577449550       17.8810252384       11.4060707856
  H         3.8891970847       18.6585011539       11.4082270761
  C         6.7003350178        7.0616130110       11.4003270973
  H         7.4778446890        7.8302014155       11.3980163583
  C         6.7470500210       17.8719662779        0.5912021671
  H         7.5184678005       18.6448704683        0.5960411782
  C        17.4911940111        7.0011998839        0.5610827019
  H        18.2628077712        7.7741051305        0.5657286221
  C        17.5701916561       17.8076944654       11.3702164785
  H        18.3476329516       18.5762697115       11.3679360971
 Xe        21.2978211798       10.7474566624       10.7777840550
