     409
 i =      56, E =    -5133.8739650376
  N         2.8780431720        5.2029832357       16.0186607665
  C         1.5599816245        5.4694712901       16.2858411412
  N        13.6636033143        5.1667708519        5.1739696451
  C        12.3470178891        5.4414962144        5.4454229968
  N        19.6014438491       17.5652489861       16.0119514655
  C        20.9195132905       17.3038648918       16.2876605039
  N         8.7562872636       17.5902398487        5.1896071405
  C        10.0726071023       17.3103485074        5.4571194428
  N        19.5317854535        5.1758379069        6.7366464044
  C        20.8484835709        5.4560797818        6.4747790055
  N         8.7323318476        5.1912700591       17.5859680185
  C        10.0500766760        5.4561884748       17.3098435055
  N         2.8839477699       17.5857387339        6.7541506723
  C         1.5681744541       17.3111006815        6.4806782005
  N        13.7441418410       17.5738329060       17.5821876133
  C        12.4256372973       17.3087489568       17.3125820392
  N        15.8211597206        3.0164108512        5.1797848203
  C        16.1000519896        1.7001388809        5.4475017787
  N        15.9011396188       13.8496793632       16.0220020382
  C        16.1636115055       12.5296090833       16.2909086265
  N        15.8972149699       19.7093443430       17.5696047611
  C        16.1551570876       21.0271328172       17.2927613635
  N        15.8369274795        8.8848596021        6.7257642646
  C        16.1138399648       10.2028658755        6.4592885242
  N         6.5901415754       19.7392854029        5.2023747817
  C         6.3064237239       21.0548288370        5.4673927006
  N         6.5806273451        8.9116568371       16.0244724868
  C         6.3221936553       10.2325089786       16.2954671060
  N         6.5733031623        3.0569352481       17.5873171529
  C         6.3147493568        1.7382760679       17.3157679740
  N         6.5751310556       13.8707708001        6.7362947731
  C         6.3008385692       12.5524300116        6.4686459882
  N         5.0424758843       16.0414870013        3.0422775217
  C         5.3200414749       16.3101593970        1.7265314975
  N         5.0110966320        5.1878237883       13.8615335127
  C         5.2758209991        5.4613443621       12.5435553390
  N        17.4551191309       16.0001390869       19.7199737753
  C        17.1789896994       16.2659938291       21.0371186990
  N        17.3862012551        5.1651885847        8.8909636001
  C        17.1205809401        5.4375905145       10.2089182801
  N         5.0143124485        6.7668003262       19.7255803398
  C         5.2757496983        6.4938530544       21.0438199695
  N         5.0350637978       17.5892755739        8.9131620212
  C         5.3150438053       17.3206053775       10.2291717023
  N        17.3795699638        6.7174003475        3.0297439340
  C        17.1144992161        6.4459602070        1.7123779225
  N        17.4554672142       17.5649368867       13.8515962522
  C        17.1813752667       17.2936648862       12.5346057592
  N         4.9885495282        3.0455183072        6.7448287315
  C         5.2672220600        1.7292445418        6.4771792109
  N         5.0598728299       13.8779176865       17.5891237095
  C         5.3232787108       12.5598452254       17.3153592723
  N        17.4168980029       19.7112945155        6.7268211608
  C        17.1361220430       21.0264501147        6.4586312064
  N        17.4231857810        8.8830982079       17.5834084458
  C        17.1625207658       10.2019152196       17.3090113886
  N         5.0649801325       19.7342398515       16.0242269057
  C         5.3236811020       21.0524962609       16.2970338468
  N         4.9953733178        8.9173259558        5.1834527846
  C         5.2729946398       10.2337403638        5.4540240473
  N        17.4115582404        3.0301187723       15.9982676616
  C        17.1494505694        1.7114957822       16.2693807086
  N        17.4322463794       13.8364690376        5.1812082439
  C        17.1500000583       12.5202205677        5.4477814805
  N         2.9194975885       16.0372298163       17.5840486484
  C         1.6019116550       16.3021282316       17.3114634585
  N        13.7112998476       16.0061175620        6.7345388774
  C        12.3921988770       16.2794746369        6.4683126008
  N        19.5797178636       16.0043760086        5.1867803943
  C        20.8951787950       16.2819222017        5.4583306559
  N         8.7777680691       16.0407581488       16.0355877798
  C        10.0980475603       16.3044287385       16.3019297141
  N        19.5567346668        6.7300165570       17.5709507226
  C        20.8750807334        6.4698345030       17.2990794116
  N         8.7102674088        6.7367860679        6.7316410543
  C        10.0283836690        6.4647237428        6.4625925645
  N         2.8428936971        6.7629109647        5.2007155986
  C         1.5261466409        6.4878768604        5.4687673711
  N        13.6939451832        6.7281564326       16.0166050557
  C        12.3741459873        6.4630588789       16.2865251002
  N        15.8462017522        5.1616855759       19.7099395566
  C        16.1095937490        5.4308773075       21.0287985035
  N        15.8843072624       16.0124864708        8.8950960500
  C        16.1577559795       16.2794675180       10.2138062349
  N        15.8718657184       17.5439804679        3.0302557660
  C        16.1494495221       17.2763409552        1.7142374544
  N        15.8579608486        6.7286357140       13.8548842020
  C        16.1185262328        6.4574586208       12.5346920199
  N         6.5419150646        5.1996235063        3.0428515965
  C         6.2764225141        5.4724464181        1.7259142153
  N         6.6175611428       16.0405471433       13.8673894846
  C         6.3447648094       16.3073321326       12.5482595960
  N         6.6249474293       17.5923325006       19.7345509299
  C         6.3498132828       17.3234978777       21.0511334384
  N         6.5493790693        6.7448283947        8.8982901205
  C         6.2833988153        6.4780643058       10.2183063440
  N        19.5703170614       17.5649515251        6.7376309748
  C        20.8888101030       17.2993533117        6.4721643127
  N         8.7868474631       17.5974832937       17.5891430948
  C        10.1034915171       17.3210847389       17.3169529659
  N         2.8459239165        5.2058801910        6.7556677828
  C         1.5282165725        5.4718575377        6.4840927852
  N        13.6893920935        5.1709065994       17.5693459625
  C        12.3722849299        5.4471864066       17.3022044999
  N         2.9167117879       17.5902820525       16.0257644695
  C         1.5999277181       17.3164719399       16.2946556229
  N        13.7116168738       17.5583927661        5.1774404932
  C        12.3940119908       17.2948824012        5.4523649072
  N        19.5645736583        5.1808918884       16.0098327647
  C        20.8805062702        5.4569153942       16.2810469544
  N         8.7074179952        5.1826603730        5.1766936821
  C        10.0255344512        5.4491861897        5.4468980989
  N         6.6191716352       19.7430851109       17.5817280170
  C         6.3381895507       21.0588312302       17.3138338641
  N         6.5535982234        8.9082785812        6.7360598471
  C         6.2900044278       10.2287616336        6.4686419048
  N         6.5430149980        3.0515171608        5.1879555470
  C         6.2821582023        1.7338502793        5.4610378266
  N         6.6141967392       13.8753612978       16.0337143816
  C         6.3388266077       12.5565806770       16.2994698246
  N        15.8521133958        3.0222532108       17.5504336643
  C        16.1327090125        1.7065119512       17.2839215800
  N        15.8756643944       13.8459737731        6.7346015825
  C        16.1337995186       12.5257354843        6.4631593229
  N        15.8614722410       19.7009086076        5.1717591604
  C        16.1200920929       21.0199605294        5.4436673647
  N        15.8697775313        8.8884481428       16.0262098979
  C        16.1472649982       10.2063338117       16.2927631184
  N        17.4038733559        6.7150281926       19.7180327814
  C        17.1267874513        6.4447970135       21.0334821985
  N        17.4363826342       17.5713192839        8.8937536808
  C        17.1721051067       17.2967104201       10.2119351384
  N         4.9872861430        6.7572377826        3.0408527877
  C         5.2619627498        6.4893412900        1.7238626707
  N         5.0620558261       17.5944434669       13.8679196043
  C         5.3286944464       17.3226139331       12.5503672443
  N        17.4295010743       15.9904059431        3.0354378084
  C        17.1655354814       16.2612086433        1.7172330813
  N        17.4149468099        5.1750785848       13.8472064666
  C        17.1348122270        5.4420870976       12.5307453151
  N         5.0689599747       16.0375656665       19.7302974840
  C         5.3335770975       16.3085745529       21.0477716339
  N         4.9939323500        5.1898259878        8.9051937538
  C         5.2676848483        5.4622558937       10.2217726821
  N        17.4478105648       19.7147358400       16.0094996031
  C        17.1685052969       21.0312800089       16.2750985199
  N        17.3889403390        8.8804189284        5.1681351869
  C        17.1282396392       10.1987222111        5.4422994725
  N         5.0219501813        3.0470432234       16.0282998836
  C         5.3012425350        1.7316318197       16.2982953312
  N         5.0223519953       13.8747809028        5.1795667347
  C         5.2858018191       12.5561442631        5.4522815380
  N        17.3799684039        3.0237545291        6.7319722131
  C        17.1174117974        1.7055416964        6.4614004858
  N        17.4602782088       13.8415470944       17.5741372084
  C        17.1810871372       12.5247287506       17.3051694033
  N         5.0324338446       19.7309797240        6.7572059848
  C         5.2902812186       21.0494127550        6.4826917586
  N         5.0246443001        8.9222121586       17.5793103601
  C         5.3060642175       10.2381198095       17.3110462582
  N        19.5292092693        6.7295259852        5.1802247987
  C        20.8465855067        6.4710065798        5.4586771843
  N         8.7313961249        6.7389771600       16.0232480714
  C        10.0504691929        6.4682473149       16.2903457955
  N         2.8706399346        6.7631065260       17.5710831623
  C         1.5546968875        6.4864672980       17.3002567126
  N        13.6710400408        6.7232459959        6.7276932063
  C        12.3510718806        6.4579079092        6.4605903935
  N         2.8923499715       16.0362564547        5.1928926466
  C         1.5741392213       16.2979638264        5.4627636075
  N        13.7387300651       16.0184159148       16.0271994417
  C        12.4209970988       16.2927793228       16.2971823072
  N        19.6051521753       16.0089425372       17.5676235086
  C        20.9218583254       16.2882658558       17.3034541738
  N         8.7479778153       16.0283908846        6.7376439163
  C        10.0684179275       16.2912070771        6.4695141451
  N         6.5999672149       17.5951839492        3.0489679344
  C         6.3368262893       17.3246001717        1.7307064613
  N         6.5628640970        6.7451381848       13.8602101901
  C         6.2902481895        6.4781943476       12.5415400489
  N         6.5680403282        5.2095733344       19.7311352665
  C         6.2900128323        5.4769458607       21.0470328169
  N         6.5908886197       16.0352289101        8.9037695169
  C         6.3312141341       16.3052904716       10.2244517553
  N        15.9018983807       17.5578549346       19.7180197656
  C        16.1646400406       17.2827117471       21.0351494205
  N        15.8329203122        6.7217808031        8.8922873643
  C        16.1056778143        6.4541772833       10.2110799854
  N        15.8210830687        5.1647545778        3.0262317809
  C        16.0969690598        5.4322672065        1.7092624688
  N        15.8993980075       16.0096907257       13.8576125237
  C        16.1654826004       16.2778403523       12.5376998339
 Zn        14.6143807218       14.7313129350       14.7464701229
 Br        13.2993507888       13.4269503736       13.4376110307
 Zn        14.5257151669        3.8739174796        3.8875332884
 Br        13.2122666791        2.5584495915        2.5724218203
 Zn         3.7405255044       14.7506212397        3.8909638444
 Br         2.4236798750       13.4453300197        2.5698022128
 Zn         3.7293590493        3.8971648115       14.7294514529
 Br         2.4072292627        2.5803953854       13.4257641883
 Zn         7.8501069589        8.0174059630       14.7389639194
 Br         9.1634337944        9.3210182972       13.4267128247
 Zn         7.8929631469       18.8874978075        3.9074531448
 Br         9.2044973753       20.2061442808        2.5952772376
 Zn        18.6725501299        8.0121239178        3.8805724723
 Br        19.9905357895        9.3211336620        2.5633936364
 Zn        18.7421551031       18.8591610987       14.7163576910
 Br        20.0594993225       20.1712166043       13.4021707947
 Zn         7.8586653483       14.7493445004        8.0138797823
 Br         9.1675178431       13.4326260125        9.3185428319
 Zn         7.8616365440        3.9107685679       18.8824597818
 Br         9.1741902083        2.5984049600       20.2007856556
 Zn        18.7544998254       14.7112917344       18.8627825171
 Br        20.0672554663       13.3937471797       20.1754026524
 Zn        18.6736220791        3.8797841956        8.0226025240
 Br        19.9896704943        2.5628015891        9.3342684578
 Zn        14.5547328438        8.0048344071        8.0075801556
 Br        13.2488838640        9.3169367091        9.3170285061
 Zn        14.6109093615       18.8599748550       18.8733474934
 Br        13.3026153388       20.1765006174       20.1908518973
 Zn         3.7268220884        8.0617972792       18.8656630650
 Br         2.4119015560        9.3788581855       20.1766569558
 Zn         3.7381311575       18.8762134938        8.0545704890
 Br         2.4259782032       20.1927822392        9.3679250833
 Zn        14.6007297740       14.7292309302        8.0158065261
 Br        13.2905741500       13.4277971352        9.3329250888
 Zn        14.5541152559        3.8710518943       18.8451230967
 Br        13.2420642276        2.5542250549       20.1602271631
 Zn         3.7758147711       14.7446461965       18.8788556042
 Br         2.4573967857       13.4356508500       20.1950653734
 Zn         3.6978155505        3.9017613836        8.0454550510
 Br         2.3819513238        2.5891694349        9.3590084790
 Zn         7.8359847081        8.0186347606        8.0126072102
 Br         9.1507218085        9.3245643406        9.3215708032
 Zn         7.9157200477       18.8873300682       18.8772255293
 Br         9.2299295527       20.2036741154       20.1901247653
 Zn        18.7050221359        8.0102714445       18.8769498387
 Br        20.0219019713        9.3175119756       20.1956089984
 Zn        18.7154500497       18.8690306465        8.0207383602
 Br        20.0346347785       20.1841955307        9.3293674602
 Zn        14.5849945646        8.0115859468       14.7443210992
 Br        13.2786490562        9.3298970310       13.4398052402
 Zn        14.5714609377       18.8359916504        3.8807711685
 Br        13.2637600409       20.1519199802        2.5606143362
 Zn         3.6947254354        8.0555342337        3.8998992550
 Br         2.3819480371        9.3712633568        2.5859831006
 Zn         3.7733177861       18.8811790996       14.7273596977
 Br         2.4553742878       20.1987587966       13.4196658636
 Zn         7.8962232321       14.7614152079       14.7564953718
 Br         9.2022478372       13.4494568547       13.4456694799
 Zn         7.8366207294        3.8989950271        3.8906699794
 Br         9.1412255511        2.5817777497        2.5699848056
 Zn        18.7256206366       14.7042578213        3.8959181529
 Br        20.0396014226       13.3865940289        2.5839616894
 Zn        18.7122399471        3.8911329977       14.7119817765
 Br        20.0214794621        2.5736311339       13.3955786020
 Zn         5.7937814472        5.9826334133       16.8027415784
 Zn        16.6754867274       16.7792666607       16.7876715396
 Zn        16.6027284803        5.9470354243        5.9528419968
 Zn         5.8140774555       16.8158898512        5.9686821356
 Zn         5.7715888864        5.9746002650        5.9625498281
 Zn        16.6535550534       16.7757695846        5.9565675725
 Zn         5.8457439064       16.8177952859       16.8092207908
 Zn        16.6285426838        5.9503711740       16.7838590161
  N         3.6205263494        5.9853849586       16.7956990011
  N        14.4138496085        5.9427702903        5.9498893362
  N        18.8567926924       16.7821030322       16.7864356633
  N         8.0054214200       16.8133985681        5.9641213531
  N        18.7836000194        5.9469166832        5.9537619151
  N         7.9851908359        5.9670206308       16.8066877055
  N         3.6348552142       16.8140844342        5.9740573369
  N        14.4882134225       16.7936291391       16.8046541724
  N        16.5965493659        3.7666843318        5.9567364644
  N        16.6843983815       14.5920281695       16.7978130673
  N        16.6779184487       18.9650060326       16.7926186628
  N        16.6089614988        8.1358790835        5.9450407633
  N         5.8178468069       18.9890454958        5.9825978051
  N         5.7968129473        8.1705067440       16.8008132782
  N         5.7926182449        3.7989587012       16.8083921656
  N         5.8018405480       14.6197437251        5.9568323027
  N         5.8175915357       16.8188167623        3.7920957966
  N         5.7893522163        5.9649018599       14.6079895075
  N        16.6817532042       16.7815834424       18.9720549152
  N        16.6078836812        5.9424217213        8.1448727651
  N         5.7954595693        5.9897915933       18.9817358117
  N         5.8080334163       16.8115183260        8.1616663946
  N        16.5976717419        5.9424029024        3.7745681765
  N        16.6791801964       16.7880753441       14.6010228220
  N         5.7618024009        3.7952345728        5.9648417813
  N         5.8402474386       14.6235351697       16.8134341197
  N        16.6449299841       18.9591407099        5.9482742475
  N        16.6420700572        8.1391707191       16.8066218530
  N         5.8475660923       18.9923660150       16.8012755153
  N         5.7711706752        8.1661615250        5.9591286621
  N        16.6271589263        3.7726610391       16.7732628200
  N        16.6597417545       14.5877932852        5.9595550401
  N         3.6648595495       16.8158966032       16.8058041585
  N        14.4584715171       16.7797294327        5.9536631383
  N        18.8286289589       16.7817802806        5.9609245942
  N         8.0357978921       16.8218356215       16.8134502070
  N        18.8136119093        5.9515642914       16.7908488617
  N         7.9617771447        5.9613497691        5.9540490403
  N         3.5909596429        5.9863252550        5.9788043199
  N        14.4383577578        5.9467045533       16.7920896058
  N        16.6284235340        5.9387661654       18.9671483327
  N        16.6577834544       16.7936334434        8.1478180303
  N        16.6474106071       16.7664289815        3.7793960399
  N        16.6412335245        5.9532466737       14.5974861358
  N         5.7626538151        5.9770996048        3.7881921238
  N         5.8413522239       16.8188085646       14.6146493971
  N         5.8493829034       16.8142054682       18.9858748364
  N         5.7699640221        5.9660538264        8.1549622419
  C        11.2558140467       15.7488536011       15.7502553276
  H        11.2501785375       14.9729893770       14.9751807387
  C        11.1841546463        4.8955383193        4.8967119670
  H        11.1808168727        4.1199191560        4.1213266753
  C         0.4193671659       15.7400468736        4.9100499848
  H         0.4274277932       14.9654210349        4.1336226230
  C         0.4041055269        4.9139095205       15.7325844413
  H         0.4109206774        4.1389554432       14.9565093698
  C        11.2126728278        7.0139903399       15.7379305169
  H        11.2130261845        7.7880540191       14.9610908121
  C        11.2357841685       17.8529817245        4.9061236989
  H        11.2399042760       18.6295910399        4.1317127397
  C         0.3648430990        7.0308258288        4.9149010851
  H         0.3618429825        7.8070839425        4.1401035322
  C         0.4384171826       17.8609813127       15.7421481689
  H         0.4365039658       18.6375143755       14.9676632316
  C        11.2279781413       15.7349775568        7.0174922851
  H        11.2241296278       14.9582981797        7.7916864955
  C        11.2108345175        4.9032814688       17.8563877763
  H        11.2104726374        4.1291243455       18.6332238276
  C         0.4432179455       15.7467367552       17.8589194524
  H         0.4457296572       14.9729239046       18.6361712047
  C         0.3698138493        4.9153286597        7.0309481623
  H         0.3720640212        4.1407755086        7.8074399839
  C        11.1918085312        7.0109910580        7.0111584203
  H        11.1947311592        7.7865930126        7.7864933110
  C        11.2683667258       17.8646719057       17.8638845686
  H        11.2747161806       18.6404441402       18.6390663282
  C         0.3908112642        7.0284777370       17.8495925470
  H         0.3837681999        7.8038744687       18.6252507496
  C         0.4039718310       17.8554441644        7.0265935145
  H         0.3962602482       18.6315357851        7.8015448412
  C        15.6060344177       11.3712590965       15.7424438218
  H        14.8300896587       11.3760945614       14.9674416869
  C        15.5588748884        0.5362932842        4.8966346305
  H        14.7819761282        0.5300967001        4.1225312000
  C         4.7297808359       11.3975309515        4.9041605264
  H         3.9541756213       11.4014348805        4.1288416910
  C         4.7623596668        0.5672709795       15.7474420268
  H         3.9864777571        0.5593307692       14.9722835799
  C        15.5743162568       11.3679508335        7.0109446289
  H        14.7993259699       11.3736620380        7.7868917276
  C        15.5935983825        0.5436949121       17.8381598579
  H        14.8180598090        0.5384355132       18.6137052130
  C         4.7655099482       11.4019548447       17.8627459427
  H         3.9899811600       11.4067157096       18.6381756674
  C         4.7279183369        0.5653475481        7.0293045915
  H         3.9517459862        0.5586462318        7.8041835886
  C         6.8802557901       11.3916226666       15.7483493352
  H         7.6558449463       11.3871605431       14.9730260228
  C         6.8433279710        0.5783454153        4.9131011771
  H         7.6174482042        0.5852711326        4.1361965243
  C        17.6881840190       11.3557564590        4.8950128010
  H        18.4632507713       11.3495895354        4.1191187931
  C        17.7079050191        0.5544022658       15.7211565328
  H        18.4820288281        0.5596239718       14.9442781321
  C         6.8448155840       11.3880521154        7.0180793475
  H         7.6206178524       11.3845168568        7.7932179050
  C         6.8752996777        0.5834374076       17.8662538203
  H         7.6489953468        0.5915779137       18.6435746004
  C        17.7217611560       11.3599310559       17.8557074715
  H        18.4977361523       11.3544591327       18.6306691468
  C        17.6769698130        0.5496550941        7.0100640663
  H        18.4526872392        0.5555018863        7.7854184650
  C        15.6130204653       15.7286866575       11.3771689251
  H        14.8376634932       14.9531570638       11.3791624555
  C        15.5520823925        4.8826348236        0.5464390137
  H        14.7747483900        4.1089679766        0.5422400939
  C         4.7759095505       15.7598122315        0.5644186863
  H         3.9988582740       14.9857736152        0.5598847025
  C         4.7219744978        4.9126168389       11.3843776182
  H         3.9464901966        4.1371213702       11.3869553618
  C         6.8881217167       15.7573900524       11.3837437790
  H         7.6637221308       14.9820792456       11.3796142907
  C         6.8320073078        4.9232820145        0.5684916314
  H         7.6058206982        4.1460513828        0.5719281758
  C        17.7216643784       15.7127355214        0.5591161664
  H        18.4962127278       14.9362240167        0.5624222020
  C        17.6764045408        4.8896619287       11.3675847668
  H        18.4513086574        4.1135660429       11.3639015774
  C        15.5624215777        7.0050867236       11.3750635480
  H        14.7874969809        7.7810687193       11.3785202536
  C        15.6070387455       17.8296859875        0.5526959709
  H        14.8320280847       18.6057318919        0.5495134067
  C         4.7190388491        7.0420790191        0.5617062347
  H         3.9443842957        7.8184774943        0.5580805374
  C         4.7727818568       17.8714621702       11.3924174885
  H         3.9974717053       18.6471379094       11.3967327622
  C         6.8356962766        7.0283246560       11.3783276111
  H         7.6111997248        7.8037537540       11.3760958913
  C         6.8939904811       17.8738021665        0.5736316947
  H         7.6697183898       18.6491328070        0.5780182761
  C        17.6717290024        6.9945099045        0.5554877668
  H        18.4484001743        7.7689256843        0.5596473635
  C        17.7263825062       17.8441638779       11.3717928188
  H        18.5019479652       18.6195911674       11.3695546414
 Xe        11.2207744791       11.3803063034       11.3797670262
