     409
 i =      56, E =    -5133.8775850448
  N         2.7277181825        5.2411598931       16.0340842272
  C         1.4075955918        5.5017735606       16.2966468259
  N        13.5057148997        5.1869758102        5.1975410792
  C        12.1902718884        5.4654443545        5.4705965889
  N        19.4645895600       17.5538603265       16.0068339044
  C        20.7831493675       17.3021406510       16.2892720016
  N         8.6202070896       17.6006266147        5.2215825725
  C         9.9371723382       17.3162046104        5.4822460670
  N        19.3777936027        5.1784816720        6.7453881182
  C        20.6943742886        5.4713411957        6.4919201261
  N         8.5807373396        5.2280972517       17.5899935219
  C         9.8988717257        5.4856586343       17.3112291627
  N         2.7466686336       17.6037838920        6.7723826229
  C         1.4311940971       17.3251757426        6.4966156710
  N        13.6094155029       17.5535615000       17.5723959997
  C        12.2898780198       17.2942334497       17.3038803321
  N        15.6496168548        3.0152878534        5.1949139409
  C        15.9312953898        1.6988071425        5.4646220114
  N        15.7437818482       13.8434257299       16.0052457701
  C        16.0055175836       12.5242978069       16.2756796930
  N        15.7544919022       19.6955859131       17.5655068670
  C        16.0041131262       21.0148987287       17.2858658970
  N        15.6792537320        8.8876508884        6.7470902376
  C        15.9589795501       10.2035788772        6.4772497638
  N         6.4589281488       19.7705778675        5.2291507086
  C         6.1688841233       21.0861010044        5.4918650588
  N         6.4436971381        8.9383421694       16.0302429689
  C         6.1846029152       10.2579196584       16.3016667313
  N         6.4260813706        3.0868380419       17.6044413005
  C         6.1709945655        1.7669801465       17.3313401279
  N         6.4533396684       13.8955948663        6.7706425954
  C         6.1751059792       12.5793575652        6.5026181806
  N         4.9162139502       16.0643244759        3.0599397839
  C         5.1936383500       16.3342480391        1.7439760104
  N         4.8705365350        5.2312241366       13.8854184884
  C         5.1348718320        5.5036356275       12.5670049204
  N        17.3153860144       15.9788437882       19.7186422423
  C        17.0375247355       16.2442072980       21.0366274343
  N        17.2239691508        5.1745041838        8.8969629163
  C        16.9585969241        5.4444456275       10.2153510881
  N         4.8656915988        6.8053792583       19.7421594985
  C         5.1271122440        6.5338739359       21.0617093558
  N         4.9131363996       17.6032014302        8.9287803441
  C         5.1908218084       17.3367507446       10.2456143762
  N        17.2112248445        6.7204045279        3.0347697557
  C        16.9435705657        6.4502898080        1.7171620549
  N        17.3102292092       17.5438793881       13.8529453125
  C        17.0370722694       17.2732089275       12.5359635845
  N         4.8390817738        3.0764614694        6.7682286778
  C         5.1200985447        1.7598954397        6.5001352808
  N         4.9302862990       13.9050382308       17.5912029728
  C         5.1901958609       12.5860625060       17.3196701084
  N        17.2678222473       19.7109342586        6.7411880253
  C        16.9794798761       21.0258803871        6.4754785315
  N        17.2552716335        8.8776000005       17.5705236015
  C        16.9996804732       10.1966769134       17.2948330725
  N         4.9358263457       19.7568692793       16.0344592513
  C         5.1895465009       21.0764191088       16.3099487021
  N         4.8628576664        8.9474795186        5.2248586897
  C         5.1424625515       10.2636491455        5.4922355276
  N        17.2484364337        3.0252733384       15.9947354015
  C        16.9873974986        1.7051233631       16.2628009914
  N        17.2799771091       13.8347395881        5.1965478974
  C        16.9964673109       12.5184438988        5.4628145946
  N         2.7863405278       16.0616638031       17.6013366299
  C         1.4679816456       16.3194161481       17.3247754043
  N        13.5725345216       15.9991350932        6.7515156823
  C        12.2555106793       16.2780003887        6.4861077985
  N        19.4458388695       15.9992761883        5.1982428759
  C        20.7607700634       16.2838863118        5.4709968114
  N         8.6409250682       16.0383519595       16.0264025100
  C         9.9603747091       16.2994867622       16.2939196136
  N        19.3929506810        6.7335217363       17.5738041207
  C        20.7137006330        6.4834037484       17.3030247966
  N         8.5627020183        6.7733713747        6.7660409886
  C         9.8779659191        6.4958192154        6.4925830314
  N         2.6888672366        6.8078839723        5.2349887273
  C         1.3717694497        6.5252363175        5.4988596053
  N        13.5400648516        6.7434759309       16.0072412001
  C        12.2220073120        6.4820735490       16.2826496941
  N        15.6791846386        5.1627742802       19.7117790905
  C        15.9391640350        5.4344752545       21.0316489407
  N        15.7322041243       15.9960653709        8.9012345125
  C        16.0096644076       16.2619059777       10.2179786712
  N        15.7325081578       17.5329747750        3.0303305045
  C        16.0080929644       17.2602745005        1.7143818795
  N        15.6913137179        6.7372004334       13.8570647238
  C        15.9553984669        6.4640432301       12.5390756609
  N         6.3887521460        5.2406917747        3.0643892817
  C         6.1240521169        5.5136977169        1.7470106697
  N         6.4866745295       16.0491895870       13.8798253260
  C         6.2142002134       16.3207708416       12.5631972239
  N         6.5028666104       17.6095218676       19.7478543540
  C         6.2259113089       17.3437175919       21.0658346594
  N         6.4165041390        6.7859924074        8.9255057644
  C         6.1469089676        6.5179617197       10.2435499982
  N        19.4282493046       17.5610488186        6.7488640929
  C        20.7490821026       17.3015941302        6.4847602544
  N         8.6530578835       17.5952115693       17.5820760520
  C         9.9688306471       17.3151587861       17.3098021748
  N         2.6949111380        5.2488526396        6.7883872792
  C         1.3760433843        5.5083936049        6.5136049255
  N        13.5361712514        5.1819317319       17.5572683615
  C        12.2194170462        5.4642612396       17.2961134873
  N         2.7807077511       17.6137084606       16.0435748157
  C         1.4640502778       17.3335733334       16.3081455430
  N        13.5764321453       17.5479191087        5.1887145726
  C        12.2583547616       17.2908918786        5.4677663371
  N        19.4121685681        5.1843006361       16.0120434025
  C        20.7267144517        5.4703825005       16.2848950365
  N         8.5498778445        5.2216020026        5.2072893308
  C         9.8694532607        5.4819720639        5.4755004725
  N         6.4964136374       19.7681528683       17.5866493904
  C         6.2076382730       21.0845564365       17.3234798765
  N         6.4234618598        8.9391972094        6.7758080419
  C         6.1605018248       10.2582888880        6.5055171543
  N         6.3899296340        3.0860223229        5.2074320724
  C         6.1331370129        1.7672060626        5.4819751469
  N         6.4826717517       13.8954466156       16.0316171800
  C         6.2038566222       12.5794495436       16.3021243651
  N        15.6871976712        3.0125462678       17.5458109878
  C        15.9700758276        1.6966459273       17.2769758034
  N        15.7215823264       13.8441374848        6.7509717347
  C        15.9806831789       12.5249331977        6.4786677224
  N        15.7172109675       19.6962558242        5.1810726371
  C        15.9656483460       21.0165179705        5.4583161316
  N        15.7027792861        8.8874343394       16.0113139738
  C        15.9848000348       10.2031938006       16.2786135603
  N        17.2359545201        6.7172482160       19.7212177052
  C        16.9565430030        6.4482893443       21.0368071602
  N        17.2871089335       17.5515992676        8.8968589257
  C        17.0261424442       17.2764334534       10.2150923864
  N         4.8362462984        6.7995054482        3.0630539476
  C         5.1107466050        6.5315363194        1.7447614772
  N         4.9334383780       17.6070009807       13.8847478351
  C         5.2005456958       17.3382219641       12.5663847333
  N        17.2887641485       15.9772693385        3.0389081533
  C        17.0230088394       16.2438007818        1.7193093156
  N        17.2478350319        5.1810969945       13.8535371395
  C        16.9701132000        5.4472447546       12.5364805963
  N         4.9430069767       16.0573799370       19.7451995774
  C         5.2075104400       16.3306411001       21.0629950390
  N         4.8562442378        5.2345145662        8.9285429751
  C         5.1281623742        5.5053643709       10.2457159421
  N        17.3048090938       19.7067344805       16.0039047533
  C        17.0171622898       21.0227742737       16.2676743783
  N        17.2276101055        8.8778350967        5.1844681038
  C        16.9709387504       10.1969835305        5.4581852810
  N         4.8706342130        3.0742091482       16.0482585564
  C         5.1549037879        1.7584068642       16.3162509500
  N         4.9008312608       13.9030582535        5.2119727567
  C         5.1602191691       12.5844014235        5.4863650479
  N        17.2104073428        3.0262870513        6.7470417374
  C        16.9489253020        1.7069420414        6.4786126095
  N        17.3069302274       13.8343919704       17.5541236772
  C        17.0246311808       12.5180038599       17.2880233792
  N         4.9008178637       19.7575656934        6.7825316995
  C         5.1528774044       21.0777477345        6.5072671499
  N         4.8859544135        8.9494908027       17.5850251319
  C         5.1688797492       10.2651473566       17.3173410215
  N        19.3715660823        6.7314000194        5.1873562028
  C        20.6900399376        6.4859206538        5.4753115168
  N         8.5845352370        6.7774549357       16.0286919329
  C         9.9013429995        6.4988406987       16.2932982997
  N         2.7103433549        6.8025102560       17.5845128848
  C         1.3952420706        6.5192868804       17.3102890873
  N        13.5185296725        6.7436272852        6.7532202496
  C        12.1987994220        6.4810854306        6.4863950700
  N         2.7621687508       16.0549289354        5.2096306158
  C         1.4422632476       16.3124898031        5.4781844887
  N        13.5965148668       16.0027759826       16.0129198017
  C        12.2811435315       16.2808211610       16.2864098815
  N        19.4705229525       15.9955443486       17.5603389377
  C        20.7871533532       16.2855404961       17.3042390914
  N         8.6154730091       16.0380505019        6.7707918873
  C         9.9339943948       16.2979244661        6.4953921069
  N         6.4727293279       17.6192889993        3.0685101178
  C         6.2107279409       17.3483840249        1.7487860361
  N         6.4282921149        6.7845074017       13.8813290636
  C         6.1526874657        6.5169723264       12.5645125597
  N         6.4214797805        5.2480872851       19.7501784711
  C         6.1415774339        5.5167552766       21.0662260841
  N         6.4678815955       16.0466831161        8.9245493588
  C         6.2050935686       16.3197633869       10.2426610001
  N        15.7637032972       17.5380707095       19.7162543266
  C        16.0242680473       17.2621232735       21.0338402834
  N        15.6734016908        6.7341731893        8.9013828006
  C        15.9459733136        6.4628269422       10.2181895311
  N        15.6496621237        5.1700971748        3.0322250087
  C        15.9244040298        5.4381324446        1.7143226360
  N        15.7487846496       15.9935156158       13.8566624347
  C        16.0181685991       16.2607489871       12.5385982433
 Zn        14.4474570510       14.7091352284       14.7167374147
 Br        13.1249316166       13.3990080388       13.4050228109
 Zn        14.3522386950        3.8848824531        3.9019819775
 Br        13.0282809902        2.5729032543        2.5939064359
 Zn         3.6222037417       14.7689445505        3.9087992205
 Br         2.2982120997       13.4602321985        2.5974713220
 Zn         3.5811467473        3.9382314915       14.7523373499
 Br         2.2610325462        2.6279543986       13.4375350744
 Zn         7.7311533667        8.0700499266       14.7327420328
 Br         9.0499260160        9.3794779113       13.4165749033
 Zn         7.7606896229       18.9117089727        3.9433884310
 Br         9.0813939328       20.2182033534        2.6255575501
 Zn        18.5084963993        8.0116074766        3.8879426806
 Br        19.8269178049        9.3195380742        2.5687498652
 Zn        18.6019827879       18.8414156399       14.7123381628
 Br        19.9168610157       20.1508295599       13.3921925249
 Zn         7.7505498184       14.7480392952        8.0627023470
 Br         9.0622754916       13.4247863712        9.3730513624
 Zn         7.7188919781        3.9510816650       18.8936577768
 Br         9.0290620110        2.6318951310       20.2088814086
 Zn        18.6087914220       14.6915701863       18.8428913811
 Br        19.9199714231       13.3691429454       20.1543692886
 Zn        18.5120436954        3.8844315483        8.0328521500
 Br        19.8241257888        2.5623346307        9.3445046503
 Zn        14.3872430768        8.0342346329        8.0470325722
 Br        13.0809619672        9.3563543994        9.3624599885
 Zn        14.4741735005       18.8352909144       18.8700509368
 Br        13.1670713876       20.1572103431       20.1858123186
 Zn         3.5759004769        8.1020826325       18.8743499273
 Br         2.2710078800        9.4241134605       20.1906240531
 Zn         3.6112397967       18.8886016789        8.0710443206
 Br         2.3059868337       20.2082251114        9.3920118035
 Zn        14.4344483243       14.7087300142        8.0484494142
 Br        13.1143420985       13.3989147188        9.3633775252
 Zn        14.3910104122        3.8727344529       18.8369191748
 Br        13.0716660137        2.5638974163       20.1541246317
 Zn         3.6442947600       14.7673878700       18.8882254533
 Br         2.3282746346       13.4595225435       20.2088941414
 Zn         3.5590948128        3.9448736163        8.0685786750
 Br         2.2403653127        2.6382026776        9.3890051201
 Zn         7.7182536709        8.0691628455        8.0630276214
 Br         9.0416122756        9.3782964402        9.3747203359
 Zn         7.7950901542       18.8968264067       18.8754052022
 Br         9.1235934817       20.2056352393       20.1830564252
 Zn        18.5329245827        8.0122586623       18.8758787296
 Br        19.8554359405        9.3221213491       20.1881284589
 Zn        18.5628836839       18.8586378796        8.0354724384
 Br        19.8874710888       20.1657143120        9.3482928500
 Zn        14.4021759317        8.0374941893       14.7169085759
 Br        13.0937922139        9.3592112926       13.4038273487
 Zn        14.4377617086       18.8278980106        3.8851296611
 Br        13.1245784257       20.1450159799        2.5700766674
 Zn         3.5562993940        8.0994442644        3.9397734012
 Br         2.2427686924        9.4201304057        2.6287802713
 Zn         3.6377182618       18.8966132553       14.7448710555
 Br         2.3291565919       20.2191951268       13.4311851578
 Zn         7.7778673393       14.7507185999       14.7315308307
 Br         9.0802201756       13.4253466604       13.4157630103
 Zn         7.6807201075        3.9429908318        3.9094869652
 Br         8.9843972862        2.6189989254        2.5930138307
 Zn        18.5874257907       14.6957301392        3.9092805366
 Br        19.8916307018       13.3693952229        2.5955991828
 Zn        18.5516061692        3.8941820047       14.7139728453
 Br        19.8541806079        2.5732053171       13.3931304003
 Zn         5.6471889093        6.0133142677       16.8190168225
 Zn        16.5413891468       16.7685434889       16.7803314690
 Zn        16.4405656886        5.9497651622        5.9612126790
 Zn         5.6854014485       16.8299862552        5.9995794873
 Zn         5.6231919108        6.0121785411        5.9993698918
 Zn        16.5050690182       16.7687574368        5.9624477006
 Zn         5.7240256533       16.8297113139       16.8166562421
 Zn        16.4654330977        5.9504090681       16.7802218779
  N         3.4656139533        6.0264304073       16.8120856636
  N        14.2585414105        5.9611163708        5.9736957516
  N        18.7213237017       16.7641652203       16.7756271043
  N         7.8712181247       16.8254021156        6.0001848449
  N        18.6278084015        5.9425723509        5.9566836999
  N         7.8355789141        6.0082343677       16.8130073437
  N         3.5011682352       16.8343383871        5.9926492521
  N        14.3501949135       16.7735853208       16.7915887829
  N        16.4257413196        3.7670621620        5.9705859123
  N        16.5305313044       14.5853252346       16.7784462347
  N        16.5393795091       18.9545022139       16.7895194739
  N        16.4478444978        8.1357572457        5.9645737559
  N         5.6894275785       19.0174273571        6.0096540899
  N         5.6587083441        8.1973979686       16.8066049285
  N         5.6415082869        3.8273642541       16.8277064503
  N         5.6820852241       14.6462017361        5.9897981203
  N         5.6904695717       16.8418797997        3.8111272862
  N         5.6523955758        6.0067005419       14.6303895932
  N        16.5437609187       16.7618350567       18.9704814859
  N        16.4470795480        5.9546242640        8.1519892256
  N         5.6481729641        6.0275438845       18.9998393885
  N         5.6865552874       16.8229668227        8.1800335366
  N        16.4290288702        5.9458988045        3.7800585718
  N        16.5303303868       16.7695704034       14.6012170265
  N         5.6091293151        3.8280026742        5.9863366356
  N         5.7113006617       14.6469822942       16.8118292490
  N        16.5028703795       18.9565186166        5.9573957963
  N        16.4724121155        8.1356273555       16.7930815184
  N         5.7247445087       19.0161333727       16.8066735173
  N         5.6386310038        8.1966956824        6.0010229284
  N        16.4626902086        3.7654138717       16.7707296726
  N        16.5067086358       14.5857838486        5.9754587517
  N         3.5310080189       16.8424971630       16.8248736497
  N        14.3212326945       16.7681439193        5.9663927759
  N        18.6904792600       16.7740164065        5.9719911070
  N         7.9008061502       16.8213281761       16.8052558172
  N        18.6555292887        5.9502159242       16.7932270411
  N         7.8091442771        6.0020153412        5.9880650264
  N         3.4382672245        6.0331947171        6.0139759242
  N        14.2847003655        5.9571045036       16.7785118837
  N        16.4627394516        5.9392716632       18.9695055454
  N        16.5052439154       16.7762957295        8.1518895764
  N        16.5084102869       16.7569288829        3.7811711698
  N        16.4729799673        5.9609364634       14.6016472694
  N         5.6106842161        6.0184725385        3.8106908504
  N         5.7113677082       16.8271916955       14.6293039608
  N         5.7261044310       16.8311398371       18.9999611800
  N         5.6356741412        6.0094420390        8.1804624507
  C        11.1147886701       15.7407748697       15.7398920212
  H        11.1058211428       14.9657874342       14.9638791110
  C        11.0248308503        4.9242203957        4.9230239643
  H        11.0171685593        4.1491064471        4.1472090802
  C         0.2896014769       15.7497179812        4.9244570714
  H         0.3037626994       14.9757791917        4.1477357903
  C         0.2568449439        4.9381504413       15.7397033984
  H         0.2735694986        4.1642627537       14.9628899887
  C        11.0631282579        7.0401885458       15.7380447999
  H        11.0652682495        7.8155569503       14.9624037481
  C        11.1002076490       17.8529458570        4.9252305339
  H        11.1042843002       18.6283052487        4.1496625921
  C         0.2072861164        7.0582882193        4.9408089199
  H         0.2010265320        7.8368681241        4.1684423507
  C         0.3007742362       17.8700729972       15.7513502312
  H         0.2964620888       18.6485235933       14.9787286426
  C        11.0923438827       15.7381781260        7.0402772753
  H        11.0888214156       14.9626469672        7.8157459409
  C        11.0576499715        4.9251956104       17.8535159995
  H        11.0556622320        4.1497831604       18.6290703363
  C         0.3105821935       15.7556014081       17.8668751743
  H         0.3161923179       14.9835926722       18.6457615782
  C         0.2185690435        4.9437501950        7.0555365133
  H         0.2243793046        4.1716745626        7.8343498786
  C        11.0432749938        7.0377460088        7.0397052621
  H        11.0503180694        7.8128001171        7.8156402900
  C        11.1355466882       17.8538559915       17.8569540659
  H        11.1453308866       18.6287494567       18.6328976315
  C         0.2247987791        7.0521440775       17.8551137336
  H         0.2087875000        7.8284320734       18.6297113791
  C         0.2621855057       17.8633269019        7.0399447360
  H         0.2491486217       18.6395642043        7.8147293821
  C        15.4450996877       11.3678162090       15.7279339127
  H        14.6684995088       11.3737459389       14.9535839696
  C        15.3965204900        0.5312515937        4.9143994225
  H        14.6183427699        0.5204409064        4.1416641712
  C         4.6006803282       11.4268414626        4.9404490456
  H         3.8239897668       11.4310012799        4.1661632980
  C         4.6203845243        0.5910646150       15.7660237034
  H         3.8414044118        0.5806494964       14.9940213105
  C        15.4210354190       11.3688301813        7.0284117300
  H        14.6468085945       11.3755216999        7.8051627621
  C        15.4357386315        0.5300910302       17.8291821105
  H        14.6587865086        0.5205287257       18.6032785874
  C         4.6309923441       11.4299714598       17.8692434208
  H         3.8569082730       11.4366062460       18.6461227416
  C         4.5859980418        0.5930426100        7.0524511992
  H         3.8097535285        0.5834420784        7.8272296384
  C         6.7435265937       11.4143287365       15.7519541702
  H         7.5180293065       11.4080258147       14.9755354507
  C         6.6978870698        0.6124042064        4.9349894180
  H         7.4698107381        0.6226314283        4.1561431743
  C        17.5319672908       11.3529029952        4.9096353910
  H        18.3055779447       11.3450854663        4.1323678995
  C        17.5487032519        0.5495328647       15.7131441355
  H        18.3206889017        0.5587437182       14.9344135485
  C         6.7179329647       11.4160235994        7.0534330821
  H         7.4944007310       11.4121210029        7.8279348979
  C         6.7378426793        0.6122210681       17.8773644368
  H         7.5121468205        0.6235463116       18.6538051342
  C        17.5630615701       11.3531121347       17.8398348454
  H        18.3398387027       11.3464150296       18.6139838147
  C        17.5116309949        0.5525060211        7.0285741461
  H        18.2852637266        0.5624343390        7.8058177651
  C        15.4635797440       15.7118919142       11.3799376316
  H        14.6857916916       14.9386190691       11.3823479073
  C        15.3793888752        4.8895541349        0.5504201716
  H        14.5999522561        4.1180767565        0.5462105077
  C         4.6488931252       15.7849594913        0.5811724587
  H         3.8699375317       15.0128751254        0.5773548599
  C         4.5793577564        4.9573509021       11.4075853953
  H         3.8009279274        4.1848798778       11.4092847875
  C         6.7589866117       15.7697901919       11.4010693860
  H         7.5323006775       14.9920528714       11.3982102048
  C         6.6802431470        4.9636177112        0.5898569725
  H         7.4523057023        4.1847105773        0.5956782009
  C        17.5771871045       15.6919649216        0.5610751426
  H        18.3494868189       14.9134545578        0.5662914372
  C        17.5119209071        4.8939284295       11.3738643114
  H        18.2846154749        4.1156659187       11.3705139897
  C        15.4017090916        7.0139223911       11.3804611415
  H        14.6282736863        7.7914608977       11.3832184328
  C        15.4662493089       17.8106591594        0.5509100933
  H        14.6915349725       18.5870288304        0.5457441442
  C         4.5700769370        7.0827362875        0.5801926967
  H         3.7957430730        7.8593104655        0.5751152805
  C         4.6480343812       17.8893418686       11.4079219167
  H         3.8748949522       18.6671184304       11.4106707772
  C         6.7006422749        7.0661685587       11.4028938993
  H         7.4787840998        7.8390539776       11.4011981253
  C         6.7686680078       17.8945278172        0.5897515082
  H         7.5456799759       18.6683728279        0.5941039396
  C        17.5003695884        6.9982443994        0.5594965370
  H        18.2772898525        7.7723129987        0.5638517173
  C        17.5837185834       17.8221820245       11.3736811791
  H        18.3613778378       18.5954193530       11.3707846506
 Xe        21.1232462680       10.5931263706       10.6347135672
