     409
 i =      56, E =    -5133.8830480485
  N         2.9744248265        5.2693050842       15.9777092300
  C         1.6516562702        5.5203440645       16.2419677555
  N        13.7840834376        5.1073874747        5.1320316732
  C        12.4667448089        5.3808117487        5.4061609058
  N        19.5986071057       17.5371087676       15.9844117239
  C        20.9168680154       17.2935436138       16.2763523341
  N         8.7979632189       17.5905027014        5.2498104467
  C        10.1141273578       17.2923950885        5.4971355887
  N        19.6499820940        5.1570363939        6.7227627085
  C        20.9666887123        5.4574449904        6.4790279198
  N         8.8230080497        5.2489043252       17.6015981939
  C        10.1409585038        5.4810784698       17.2984549193
  N         2.9204424424       17.5780007139        6.7870462801
  C         1.6065659443       17.2904071405        6.5127760016
  N        13.7500855720       17.5814876152       17.5912684394
  C        12.4265720584       17.3257847105       17.3339199479
  N        15.9544179748        2.9701793253        5.1336646729
  C        16.2154477048        1.6529992307        5.4146614124
  N        15.8530249495       13.8375075709       16.0113888952
  C        16.1303512242       12.5182831955       16.2714137818
  N        15.9222461633       19.7086727384       17.5575432447
  C        16.1939683039       21.0233693575       17.2756186965
  N        15.9180577339        8.8292974164        6.6853616232
  C        16.1861429011       10.1492287126        6.4249722800
  N         6.6283477669       19.7454204568        5.2276527077
  C         6.3545573027       21.0638046119        5.4887606593
  N         6.6635152387        8.9794030890       16.0565535476
  C         6.3777748738       10.2947332843       16.3250196873
  N         6.6694500260        3.1147226554       17.5576935986
  C         6.3888864559        1.7981322991       17.2973858874
  N         6.6343445124       13.8786082782        6.8237406095
  C         6.3771603614       12.5613217728        6.5363631765
  N         5.1017285069       16.0288328879        3.0880377540
  C         5.3651608738       16.3116552888        1.7718175272
  N         5.1628858008        5.3164121006       13.8579688398
  C         5.4427451492        5.5765774599       12.5410877565
  N        17.4662890030       15.9806415144       19.7059352140
  C        17.2009256286       16.2441658743       21.0262553195
  N        17.4909901430        5.1170004000        8.8558728335
  C        17.2270394443        5.3992738218       10.1723105217
  N         5.0683906072        6.7804403647       19.7273373580
  C         5.3275568400        6.4974204173       21.0443450380
  N         5.0755033483       17.6123227868        8.9462006595
  C         5.3453170598       17.3535834264       10.2664399255
  N        17.5041872230        6.6860017448        2.9899496761
  C        17.2332843464        6.4238686663        1.6711483365
  N        17.4236252704       17.5305936229       13.8449927090
  C        17.1512351645       17.2538621056       12.5297583826
  N         5.0951930327        3.0750190416        6.7697969427
  C         5.3511634229        1.7533753241        6.5006937796
  N         5.0656881290       13.9245436604       17.6173325721
  C         5.3403000259       12.6081042364       17.3433837566
  N        17.4604488284       19.6553934397        6.7415783396
  C        17.2057010874       20.9728206928        6.4565821121
  N        17.4600777322        8.8810620243       17.5208347884
  C        17.1738179671       10.1971558580       17.2613038915
  N         5.0763621024       19.7967417444       16.0534210576
  C         5.3582251032       21.1153716574       16.3074096331
  N         5.1305959263        8.9296343538        5.1841867825
  C         5.3869241000       10.2451837037        5.4776462745
  N        17.4966501910        3.0122656713       15.9715791376
  C        17.2183203751        1.6957336536       16.2429927213
  N        17.4780781151       13.7985628769        5.1759814082
  C        17.2058448536       12.4787251912        5.4333649147
  N         2.9195782097       16.0799483073       17.6208423962
  C         1.6013620090       16.3274303512       17.3318134346
  N        13.7476274966       15.9294520811        6.7184262049
  C        12.4308946748       16.2212863318        6.4657653193
  N        19.6282332417       15.9617552678        5.1982278693
  C        20.9419014692       16.2444408828        5.4785688809
  N         8.7672126865       16.0792905494       16.0743171544
  C        10.0876263893       16.3362103194       16.3392928493
  N        19.6327043770        6.7502300561       17.5200595291
  C        20.9536896597        6.4979807833       17.2517446023
  N         8.8452389629        6.7188200076        6.6938543346
  C        10.1574346374        6.4220312850        6.4268774712
  N         2.9591733474        6.8017850643        5.2362922705
  C         1.6434572842        6.5155725139        5.4974825100
  N        13.7789081751        6.6831868623       15.9301299044
  C        12.4621098329        6.4297398479       16.2195029664
  N        15.9400245140        5.1652871567       19.6691217072
  C        16.2152806088        5.4244456867       20.9869072929
  N        15.8767420866       15.9478098682        8.8925007738
  C        16.1371329908       16.2268494894       10.2114082648
  N        15.9162936992       17.5078322184        3.0328010290
  C        16.1893857671       17.2465619134        1.7143902160
  N        15.9564710366        6.7251144672       13.8033261109
  C        16.2240015400        6.4434373090       12.4873791129
  N         6.6099288336        5.1911666867        3.0344579300
  C         6.3349948167        5.4646656541        1.7196250962
  N         6.6251967780       16.0924523813       13.9138113277
  C         6.3581790712       16.3563174073       12.5950398198
  N         6.6281356212       17.6381154078       19.7777464358
  C         6.3667519051       17.3547980310       21.0949339339
  N         6.7483015771        6.8024513605        8.8899210879
  C         6.4751394277        6.5538912582       10.2116082667
  N        19.6037645808       17.5090459901        6.7623880542
  C        20.9253985067       17.2554413615        6.4988959155
  N         8.7873155428       17.6402293343       17.6250559716
  C        10.1028045977       17.3552601676       17.3516392832
  N         2.9680782204        5.2557103599        6.8008462608
  C         1.6483742389        5.5052678938        6.5183929931
  N        13.7806378236        5.1623223095       17.5199405743
  C        12.4623930171        5.4374274757       17.2574835031
  N         2.9149863336       17.6362245033       16.0641601962
  C         1.5981153815       17.3428471823       16.3156993327
  N        13.7531207434       17.5062355260        5.1845419568
  C        12.4347302859       17.2511364899        5.4646898885
  N        19.6546441995        5.1923079368       15.9662656419
  C        20.9692249214        5.4825759608       16.2358434254
  N         8.8192788613        5.1686826679        5.1335719234
  C        10.1426420060        5.4115981575        5.4061270033
  N         6.6262302066       19.8002234380       17.6162085726
  C         6.3687166237       21.1173161940       17.3285898948
  N         6.6984333513        8.9206979364        6.7281011287
  C         6.4074227220       10.2397723130        6.4886140887
  N         6.6315161189        3.0580023771        5.1953166162
  C         6.3562845124        1.7439930083        5.4746590596
  N         6.6157182183       13.9345340999       16.0574532428
  C         6.3535170334       12.6156411939       16.3257728175
  N        15.9385054089        3.0222142982       17.5253261810
  C        16.2033584708        1.7034626600       17.2595242249
  N        15.9164225117       13.7866385369        6.7266523473
  C        16.1866419988       12.4707428985        6.4457444183
  N        15.9123073858       19.6548215839        5.1791607977
  C        16.1942221562       20.9722403016        5.4369488716
  N        15.8903909650        8.8754113219       15.9789061786
  C        16.1473633946       10.1949363695       16.2565303704
  N        17.4871838203        6.7274840886       19.6738468598
  C        17.2257154073        6.4448215903       20.9906099308
  N        17.4365519192       17.4987430637        8.8937428940
  C        17.1575721961       17.2375898204       10.2103395396
  N         5.0639553753        6.7561062370        3.0441444012
  C         5.3245734180        6.4853412811        1.7248678089
  N         5.0654838060       17.6427464005       13.9048340468
  C         5.3393803218       17.3685811342       12.5883715322
  N        17.4752892377       15.9545931417        3.0262113012
  C        17.2047332897       16.2303803199        1.7089695116
  N        17.5011824023        5.1578918371       13.8131876254
  C        17.2319405193        5.4198422584       12.4937104452
  N         5.0758952875       16.0785755289       19.7729150816
  C         5.3529490238       16.3370863746       21.0912134835
  N         5.1769207153        5.2611966135        8.9081162745
  C         5.4503383353        5.5472802109       10.2215648247
  N        17.4626608782       19.6936656513       15.9876771517
  C        17.2020686457       21.0140047526       16.2527303097
  N        17.4778986692        8.8418534157        5.1351776115
  C        17.2048189379       10.1573453267        5.4125973301
  N         5.1296185232        3.1164279790       15.9868046646
  C         5.3822728405        1.7977321383       16.2729046478
  N         5.0900407400       13.8831102406        5.2571524248
  C         5.3659163323       12.5652624160        5.5164062120
  N        17.5081799458        2.9722969121        6.6923252933
  C        17.2289705395        1.6540699655        6.4327370932
  N        17.4326760484       13.8345992743       17.5432778607
  C        17.1607626686       12.5177451073       17.2722629184
  N         5.0718093278       19.7527708570        6.7830976927
  C         5.3415399835       21.0701079924        6.5072115105
  N         5.1012269782        8.9654656646       17.6076076284
  C         5.3597043541       10.2858660617       17.3387614599
  N        19.6455420517        6.7109300072        5.1637407435
  C        20.9631775522        6.4705580510        5.4605534263
  N         8.8260971488        6.7799216693       16.0220820967
  C        10.1423718893        6.4779331410       16.2644124795
  N         2.9474503494        6.8157757319       17.5420797976
  C         1.6345723914        6.5313456800       17.2621852369
  N        13.7944205271        6.6493894537        6.7014406895
  C        12.4763056995        6.3876062144        6.4303182244
  N         2.9439636797       16.0246087063        5.2290616699
  C         1.6228137445       16.2770731750        5.4949408243
  N        13.7199678481       16.0207451075       16.0395396176
  C        12.4079764579       16.3070158245       16.3214170638
  N        19.6034885796       15.9830489166       17.5418756362
  C        20.9201777162       16.2787702448       17.2929836651
  N         8.7907317359       16.0169737300        6.7871471371
  C        10.1096975602       16.2637271656        6.4997100080
  N         6.6544747611       17.5872743916        3.0946108325
  C         6.3790963004       17.3288760614        1.7761152038
  N         6.7194190770        6.8723896688       13.8556112108
  C         6.4618507718        6.5889876489       12.5371053314
  N         6.6258098919        5.2264909250       19.7244481156
  C         6.3424116643        5.4810965931       21.0413269634
  N         6.6381148279       16.0633123319        8.9587066569
  C         6.3652013120       16.3418767908       10.2743135854
  N        15.9237766549       17.5492497966       19.7183199414
  C        16.1919394718       17.2664038015       21.0336322962
  N        15.9488558383        6.6838784404        8.8478576166
  C        16.2198756893        6.4229495802       10.1667269247
  N        15.9534130801        5.1251897713        2.9825881638
  C        16.2215705805        5.4041685572        1.6665280651
  N        15.8520782292       15.9905207143       13.8547407430
  C        16.1263124610       16.2474656250       12.5345245026
 Zn        14.5527872736       14.7157288409       14.7346224227
 Br        13.2276291340       13.4058817173       13.4261664324
 Zn        14.6595654436        3.8285822663        3.8379222783
 Br        13.3439845569        2.5156344495        2.5217797857
 Zn         3.8130823990       14.7309379731        3.9460219595
 Br         2.5080944160       13.4130671783        2.6255861657
 Zn         3.8641671633        4.0015049742       14.6851667269
 Br         2.5637362014        2.6916846478       13.3519164653
 Zn         7.9935647245        8.1407232505       14.7780622140
 Br         9.4460191174        9.5150756291       13.6870134294
 Zn         7.9433233435       18.8828262034        3.9558248536
 Br         9.2643039615       20.1895161320        2.6409959006
 Zn        18.7820997481        7.9893651139        3.8520992682
 Br        20.0952371641        9.3103348095        2.5430072926
 Zn        18.7314070906       18.8202816287       14.6854774134
 Br        20.0496076757       20.1227325315       13.3624657690
 Zn         7.9236872501       14.7579722325        8.1094335602
 Br         9.2732600767       13.4796823843        9.4265645154
 Zn         7.9479848018        3.9552582375       18.8772172680
 Br         9.2486745897        2.6269434193       20.1901573758
 Zn        18.7412284993       14.6826511877       18.8269605479
 Br        20.0616133686       13.3642063852       20.1322965679
 Zn        18.7903228809        3.8375702530        7.9945807071
 Br        20.1119515239        2.5250271766        9.3048306985
 Zn        14.6475240831        7.9562745410        7.9859296217
 Br        13.3511302264        9.2756332433        9.3128291744
 Zn        14.6448159874       18.8650695103       18.8740775512
 Br        13.3523576470       20.1905860273       20.1994422787
 Zn         3.7881872592        8.0875926493       18.8711587838
 Br         2.4600962593        9.3827687909       20.1907119591
 Zn         3.7754932577       18.8872505542        8.0689211003
 Br         2.4557162800       20.2088501947        9.3729868396
 Zn        14.6094333646       14.6403229843        8.0129836423
 Br        13.3052780132       13.3147037084        9.3273600148
 Zn        14.6441958089        3.8806785914       18.8173979178
 Br        13.3230065848        2.5723991651       20.1324569485
 Zn         3.7818786231       14.7855718610       18.9162745704
 Br         2.4687685282       13.4695869725       20.2308183873
 Zn         3.8485185818        3.9686692900        8.0828140538
 Br         2.5438307371        2.6718142708        9.4235537640
 Zn         8.0346251332        8.0589215029        7.9700246316
 Br         9.4585019993        9.3991384875        9.1394527412
 Zn         7.9166066100       18.9355093103       18.9153170168
 Br         9.2408899419       20.2432393776       20.2271134171
 Zn        18.7635405666        8.0336340146       18.8144854520
 Br        20.0674261539        9.3579171708       20.1286877799
 Zn        18.7305544994       18.7938175704        8.0520198433
 Br        20.0429552424       20.1108824082        9.3669716736
 Zn        14.6393896236        7.9996273575       14.6579410246
 Br        13.3503067147        9.3133728271       13.3182936072
 Zn        14.6151149922       18.7929732929        3.8925794428
 Br        13.3038371640       20.1145810005        2.5818309836
 Zn         3.8054869372        8.0724056996        3.9155598869
 Br         2.4853491152        9.3905605441        2.6113509993
 Zn         3.7755101533       18.9335924068       14.7710280744
 Br         2.4604787503       20.2502655574       13.4581430759
 Zn         7.9068881519       14.7981389087       14.7732838605
 Br         9.2446835574       13.5071780450       13.4570616693
 Zn         7.9079223047        3.8895955793        3.8684649580
 Br         9.1831940669        2.5510224870        2.5392318104
 Zn        18.7755127518       14.6697988490        3.8942036557
 Br        20.1000534380       13.3705927355        2.5741814564
 Zn        18.7985608047        3.8795642284       14.6878408548
 Br        20.1215708526        2.5573313887       13.3883470913
 Zn         5.8975356441        6.0538300523       16.8019442330
 Zn        16.6647637566       16.7682747379       16.7769166705
 Zn        16.7200202307        5.8970850219        5.9099267718
 Zn         5.8594054014       16.8197872501        6.0207423825
 Zn         5.8992637306        6.0004033380        5.9601138767
 Zn        16.6812877165       16.7187434643        5.9576580771
 Zn         5.8436757576       16.8728340151       16.8451614915
 Zn        16.7130420380        5.9475608908       16.7326565002
  N         3.7078633496        6.0506767870       16.7643378999
  N        14.5359383399        5.8761664731        5.9151563446
  N        18.8543603993       16.7467964791       16.7520904918
  N         8.0477397458       16.8172670008        6.0290647951
  N        18.9017746236        5.9177154522        5.9289159474
  N         8.0784559757        6.0336228757       16.8279473984
  N         3.6787591723       16.8100873890        6.0097372281
  N        14.4814454314       16.7932728767       16.8089848967
  N        16.7354177449        3.7174576887        5.9077061867
  N        16.6418782280       14.5826797305       16.7800898737
  N        16.6897414476       18.9540913373       16.7769254983
  N        16.6999891089        8.0883611185        5.9065594047
  N         5.8515682327       19.0025957402        6.0098264726
  N         5.8892410627        8.2266321336       16.8323299512
  N         5.9067558604        3.8626566868       16.7665769275
  N         5.8576595454       14.6280058927        6.0463563616
  N         5.8809483550       16.8022693726        3.8381706622
  N         5.9348305080        6.0993065362       14.6042614249
  N        16.6941203630       16.7698768184       18.9652250635
  N        16.7179597544        5.8951527305        8.1044472620
  N         5.8545047523        6.0118330567       18.9793435461
  N         5.8570290530       16.8325495818        8.2059310881
  N        16.7292162803        5.9016126238        3.7326465527
  N        16.6377684140       16.7656892824       14.5963802269
  N         5.8691690969        3.8133460962        5.9796880614
  N         5.8380526721       14.6771223774       16.8391147538
  N        16.6792923897       18.9080122986        5.9674209471
  N        16.6838350887        8.1316147662       16.7442734680
  N         5.8446567256       19.0523488689       16.8429724299
  N         5.9236292113        8.1789089026        5.9425704794
  N        16.7207509978        3.7637346313       16.7473971834
  N        16.6974659717       14.5388966257        5.9571675118
  N         3.6634997407       16.8695371969       16.8519449225
  N        14.4971474271       16.7088534583        5.9448995085
  N        18.8692907147       16.7285734237        5.9762347415
  N         8.0305851217       16.8668364811       16.8511029335
  N        18.8971261615        5.9615094859       16.7432518247
  N         8.0856116377        5.9585144964        5.9123126850
  N         3.7106673499        6.0371422908        6.0224750711
  N        14.5266249176        5.9182998540       16.7195998932
  N        16.7095158459        5.9522202398       18.9240613904
  N        16.6623610541       16.7186799793        8.1461761622
  N        16.6949519359       16.7275688780        3.7759684688
  N        16.7287057682        5.9462303828       14.5544303192
  N         5.8419167837        5.9735728352        3.7858904666
  N         5.8437309543       16.8700534638       14.6565610215
  N         5.8477384635       16.8646193527       19.0288350429
  N         5.9616620854        6.0224182781        8.1520912794
  C        11.2370565199       15.7699582558       15.7833416349
  H        11.2198383105       14.9924094659       15.0100654302
  C        11.2975038778        4.8488025720        4.8538906359
  H        11.2873780039        4.0792645642        4.0725159215
  C         0.4735818061       15.7125023401        4.9358224164
  H         0.4917181998       14.9396880220        4.1578738856
  C         0.5005549854        4.9540162153       15.6873435612
  H         0.5160826524        4.1804030708       14.9101514886
  C        11.3029009048        6.9871895312       15.6773489782
  H        11.3017122692        7.7488162208       14.8885459748
  C        11.2767501210       17.8283280697        4.9381722620
  H        11.2803149247       18.6144298586        4.1733893519
  C         0.4813492116        7.0426494126        4.9293720500
  H         0.4788333426        7.8155159821        4.1512101849
  C         0.4352348362       17.8681810061       15.7470093125
  H         0.4315228287       18.6441315935       14.9719747301
  C        11.2681599256       15.6838403066        7.0231559665
  H        11.2647408824       14.8978346462        7.7880133801
  C        11.3013431402        4.9187099626       17.8369232518
  H        11.3014368855        4.1598639387       18.6287226852
  C         0.4429879003       15.7547951236       17.8631364098
  H         0.4465403281       14.9807286445       18.6400877619
  C         0.4894387708        4.9362446545        7.0527887224
  H         0.4920430120        4.1643395418        7.8318452064
  C        11.3242888848        6.9477345235        6.9840105018
  H        11.3338484330        7.7190636407        7.7634086519
  C        11.2756267946       17.8913096432       17.8908681655
  H        11.2926615578       18.6691363682       18.6638049173
  C         0.4639562767        7.0633429170       17.8073352210
  H         0.4481032485        7.8362270543       18.5853585023
  C         0.4348560207       17.8202208807        7.0578819717
  H         0.4170308018       18.5935152825        7.8354532316
  C        15.5810469288       11.3560307116       15.7226791438
  H        14.7965781701       11.3552060211       14.9561972656
  C        15.6571231622        0.4923077861        4.8740920443
  H        14.8832123115        0.4913773629        4.0969897661
  C         4.8253798833       11.4092102087        4.9486284372
  H         4.0502241970       11.4161309708        4.1727302200
  C         4.8242585834        0.6342716855       15.7369655728
  H         4.0530986639        0.6297857559       14.9571762209
  C        15.6346552654       11.3053061915        6.9828428047
  H        14.8575382546       11.2980401667        7.7566961674
  C        15.6502060804        0.5492292710       17.8187654134
  H        14.8770778584        0.5578421443       18.5967041595
  C         4.8000249082       11.4415092584       17.8906034026
  H         4.0252950827       11.4335661251       18.6669393878
  C         4.7992356946        0.5956569118        7.0561374969
  H         4.0286327601        0.6010079307        7.8364841631
  C         6.9143719751       11.4610948220       15.7753448801
  H         7.6941053331       11.4694050038       15.0044501765
  C         6.8996266802        0.5800282444        4.9268217825
  H         7.6685683425        0.5750643421        4.1447750460
  C        17.7563502144       11.3226361785        4.8745897743
  H        18.5344795026       11.3289347932        4.1016917654
  C        17.7568477417        0.5289514589       15.6950427779
  H        18.5286361393        0.5196742180       14.9159557200
  C         6.9407381973       11.3966917791        7.0633264685
  H         7.7203090347       11.3891619984        7.8344190143
  C         6.9242786118        0.6401309684       17.8665259343
  H         7.6937718550        0.6454798657       18.6480477909
  C        17.7230596435       11.3579643381       17.8098501732
  H        18.5088222174       11.3582382224       18.5749491840
  C        17.7655801371        0.4936783102        6.9959055350
  H        18.5379803220        0.4939444253        7.7745337504
  C        15.5774387111       15.6922000991       11.3750737835
  H        14.7965274823       14.9222440739       11.3783959795
  C        15.6714361617        4.8612849713        0.5034888114
  H        14.8987227917        4.0829247682        0.4980729066
  C         4.8099161041       15.7740252264        0.6084816443
  H         4.0345914362       14.9983332864        0.6037184513
  C         4.8943400490        5.0159451275       11.3862518184
  H         4.1144517544        4.2447949513       11.3942037473
  C         6.9141047343       15.8021002092       11.4395675397
  H         7.6942856378       15.0313441527       11.4478623514
  C         6.8844843663        4.9183846361        0.5582677140
  H         7.6568511186        4.1396531842        0.5555030156
  C        17.7502266305       15.6855149169        0.5434971803
  H        18.5226587901       14.9070047732        0.5370612028
  C        17.7749821388        4.8554975878       11.3366671855
  H        18.5445808973        4.0741700344       11.3420177118
  C        15.6770902297        6.9877703865       11.3231689431
  H        14.9079485402        7.7696179341       11.3170793228
  C        15.6430012002       17.8080250604        0.5580328033
  H        14.8703167040       18.5863786212        0.5641733764
  C         4.7752358270        7.0409265396        0.5667780320
  H         4.0023084226        7.8190091700        0.5698144557
  C         4.7914061524       17.9095538557       11.4225891654
  H         4.0137414943       18.6828890508       11.4152834341
  C         7.0233188789        7.1154616665       11.3694977571
  H         7.8069068505        7.8816637034       11.3596369406
  C         6.9218274255       17.8925135846        0.6185887101
  H         7.6960638496       18.6693414882        0.6241633621
  C        17.7771130723        6.9866532360        0.5138931661
  H        18.5477615203        7.7669751304        0.5185184665
  C        17.7078761457       17.7918077031       11.3677889581
  H        18.4895504245       18.5612527452       11.3642971489
 Xe         6.6429228976       11.0878299931       11.4072821425
