     409
 i =      96, E =    -5186.5785194194
  N         2.9498318249        5.2033516867       16.0061547257
  C         1.6311214574        5.4728439627       16.2735148690
  N        13.7766114917        5.1663954636        5.1663960636
  C        12.4554609287        5.4272838235        5.4272846229
  N        19.6331316296       17.5572307159       16.0017997637
  C        20.9509525830       17.2898329691       16.2738854988
  N         8.8190372178       17.6191012035        5.1514409858
  C        10.1357691269       17.3420970881        5.4211861193
  N        19.6298484740        5.2031942532        6.7594963204
  C        20.9474772637        5.4752931635        6.4913190499
  N         8.8190369666        5.1514417611       17.6191006915
  C        10.1357672880        5.4211868987       17.3420965473
  N         2.9464339203       17.5626865498        6.7582914438
  C         1.6291737827       17.2900097145        6.4884366624
  N        13.7816803279       17.5857672710       17.5857667583
  C        12.4603339788       17.3253983517       17.3253978590
  N        15.9414455635        3.0342794148        5.1903112882
  C        16.2064265520        1.7178298610        5.4674717365
  N        15.9003207183       13.8582270447       16.0122463555
  C        16.1698819864       12.5395573066       16.2793233026
  N        15.9396260973       19.7228600819       17.5675254435
  C        16.2051984249       21.0396120700       17.2916786151
  N        15.8982327779        8.8971900396        6.7407105035
  C        16.1686179227       10.2164700561        6.4754105028
  N         6.6339886273       19.7301343961        5.1916668584
  C         6.3662508410       21.0457565488        5.4679558180
  N         6.6713541291        8.9020135849       16.0176816666
  C         6.3983217473       10.2212755627       16.2790886009
  N         6.6404041675        3.0403561911       17.5778262157
  C         6.3744408931        1.7243538433       17.3008835040
  N         6.6831907096       13.8626132549        6.7658173506
  C         6.4078795972       12.5443712089        6.5014788364
  N         5.1008118849       16.0061316672        3.0436121637
  C         5.3685182349       16.2749258513        1.7252060458
  N         5.1187075420        5.2183699245       13.8628162113
  C         5.3859578156        5.4913202750       12.5449801587
  N        17.4823511659       15.9995231848       19.7201049244
  C        17.2131848126       16.2678034886       21.0386869884
  N        17.4654732640        5.1966668038        8.9015622678
  C        17.1917556144        5.4665221872       10.2179130876
  N         5.0918813866        6.7618162928       19.7257469242
  C         5.3596203035        6.4933553450       21.0441623058
  N         5.1052297035       17.5630374011        8.9074566480
  C         5.3755565225       17.2882893326       10.2242058834
  N        17.4832840510        6.7594586469        3.0372961307
  C        17.2136006635        6.4920458079        1.7189452791
  N        17.4678682445       17.5564621713       13.8550343054
  C        17.1932297522       17.2879806768       12.5383842347
  N         5.0915694245        3.0430002105        6.7625691418
  C         5.3590626148        1.7244981302        6.4939663651
  N         5.1109249676       13.8631504963       17.5582868949
  C         5.3783997218       12.5454723727       17.2856122551
  N        17.4828661507       19.7189740489        6.7617943844
  C        17.2138476846       21.0376477288        6.4935231051
  N        17.4652355170        8.9022019306       17.5554089280
  C        17.1913273072       10.2187927776       17.2871573723
  N         5.1010476800       19.7263212475       16.0080006646
  C         5.3689547415       21.0447712335       16.2760252970
  N         5.1142208210        8.9066437915        5.2124752567
  C         5.3836556014       10.2234848299        5.4882256415
  N        17.4818105235        3.0381400462       16.0005785213
  C        17.2124460120        1.7199149088       16.2686593165
  N        17.4681992221       13.8540760525        5.1974963126
  C        17.1937046784       12.5375226522        5.4666744731
  N         2.9501048230       16.0107706077       17.5664801265
  C         1.6321323085       16.2782163103       17.2942591170
  N        13.7607622459       16.0272509433        6.7226631943
  C        12.4470543432       16.3076039292        6.4441381324
  N        19.6322678478       15.9998385264        5.2015508887
  C        20.9497132166       16.2705737151        5.4724275475
  N         8.8095580385       16.0606241810       16.0606240395
  C        10.1293903130       16.3243508269       16.3243506010
  N        19.6302247850        6.7583756719       17.5546264095
  C        20.9482218241        6.4886546527       17.2862869229
  N         8.8083737329        6.6973169781        6.6973171767
  C        10.1271264588        6.4310673124        6.4310679146
  N         2.9467148165        6.7627314918        5.2069309852
  C         1.6287193480        6.4928401306        5.4767888009
  N        13.7607620973        6.7226637918       16.0272516378
  C        12.4470525590        6.4441387885       16.3076041567
  N        15.9412421961        5.1928039121       19.7223066915
  C        16.2066553289        5.4688979012       21.0388032239
  N        15.8974546013       16.0117799694        8.8987329850
  C        16.1678197207       16.2786580132       10.2177274654
  N        15.9384546855       17.5682944964        3.0359345772
  C        16.2043214414       17.2923151356        1.7191856144
  N        15.9015513263        6.7426128235       13.8572017402
  C        16.1708891631        6.4758892025       12.5384082253
  N         6.6304063679        5.1899438300        3.0385650314
  C         6.3644475810        5.4675455444        1.7230395597
  N         6.6753067978       16.0111825839       13.8632867670
  C         6.4004873482       16.2756196762       12.5448134517
  N         6.6430682094       17.5780114521       19.7303766221
  C         6.3757644192       17.3012420986       21.0462906201
  N         6.6807573629        6.7578392865        8.9014541245
  C         6.4063582431        6.4974492342       10.2204558331
  N        19.6302272263       17.5546253536        6.7583747823
  C        20.9482211679       17.2862863560        6.4886535769
  N         8.8220797423       17.6146127336       17.6146116961
  C        10.1383135809       17.3400878217       17.3400869764
  N         2.9467146062        5.2069310111        6.7627310033
  C         1.6287198301        5.4767884357        6.4928403027
  N        13.7790420381        5.1723836075       17.5883845207
  C        12.4578809466        5.4322292836       17.3266963073
  N         2.9501053361       17.5664816454       16.0107695179
  C         1.6321321537       17.2942604411       16.2782153375
  N        13.7790422649       17.5883836731        5.1723835063
  C        12.4578830868       17.3266958802        5.4322290637
  N        19.6322657898        5.2015511724       15.9998391957
  C        20.9497134302        5.4724278459       16.2705736784
  N         8.8155423672        5.1428275270        5.1428279501
  C        10.1328939053        5.4152189010        5.4152196583
  N         6.6430681286       19.7303777231       17.5780112049
  C         6.3757637761       21.0462916635       17.3012421168
  N         6.6807574894        8.9014544280        6.7578393722
  C         6.4063580283       10.2204551158        6.4974491217
  N         6.6304071864        3.0385649927        5.1899437937
  C         6.3644480071        1.7230386434        5.4675457899
  N         6.6753061308       13.8632875108       16.0111824634
  C         6.4004871820       12.5448140697       16.2756189006
  N        15.9384534089        3.0359358774       17.5682949109
  C        16.2043203283        1.7191848356       17.2923153659
  N        15.9015524230       13.8572005206        6.7426126150
  C        16.1708900298       12.5384088476        6.4758891663
  N        15.9412433735       19.7223072111        5.1928037944
  C        16.2066564508       21.0388016349        5.4688979318
  N        15.8974536800        8.8987317200       16.0117799751
  C        16.1678191036       10.2177286957       16.2786581013
  N        17.4828656066        6.7617951690       19.7189736432
  C        17.2138468698        6.4935233337       21.0376495601
  N        17.4652357992       17.5554082553        8.9022025492
  C        17.1913276250       17.2871570736       10.2187916066
  N         5.0915690859        6.7625689743        3.0430009744
  C         5.3590622119        6.4939662433        1.7244987884
  N         5.1109258580       17.5582876524       13.8631490767
  C         5.3784006759       17.2856128041       12.5454721157
  N        17.4818108754       16.0005785117        3.0381385124
  C        17.2124467182       16.2686591868        1.7199155295
  N        17.4681988278        5.1974959300       13.8540777355
  C        17.1937040206        5.4666743072       12.5375220067
  N         5.1010471941       16.0080006449       19.7263202356
  C         5.3689554424       16.2760254330       21.0447706717
  N         5.1142209269        5.2124751637        8.9066433683
  C         5.3836552040        5.4882249284       10.2234852923
  N        17.4823509588       19.7201066232       15.9995231286
  C        17.2131840064       21.0386876853       16.2678038222
  N        17.4654733421        8.9015600768        5.1966670862
  C        17.1917561374       10.2179122893        5.4665222367
  N         5.1008100495        3.0436137335       16.0061318316
  C         5.3685165326        1.7252076541       16.2749259089
  N         5.1187074209       13.8628165087        5.2183700703
  C         5.3859577707       12.5449786513        5.4913204050
  N        17.4832841226        3.0372967600        6.7594595593
  C        17.2136015499        1.7189447499        6.4920466312
  N        17.4678683893       13.8550333596       17.5564616320
  C        17.1932291951       12.5383842325       17.2879800495
  N         5.0918816864       19.7257466123        6.7618162949
  C         5.3596209590       21.0441627909        6.4933549513
  N         5.1052293999        8.9074578363       17.5630365475
  C         5.3755558669       10.2242050518       17.2882887392
  N        19.6298488014        6.7594951254        5.2031953439
  C        20.9474767932        6.4913184494        5.4752938092
  N         8.8090281824        6.6999558409       16.0595256825
  C        10.1283578778        6.4334246744       16.3228166727
  N         2.9464317933        6.7582920663       17.5626857176
  C         1.6291740872        6.4884371971       17.2900088636
  N        13.7595280571        6.7216072610        6.7216076831
  C        12.4456603691        6.4426797592        6.4426803766
  N         2.9498341284       16.0061552586        5.2033505560
  C         1.6311216688       16.2735148081        5.4728425211
  N        13.7617952396       16.0296101409       16.0296104022
  C        12.4483105077       16.3098115757       16.3098115838
  N        19.6331318661       16.0017999858       17.5572296020
  C        20.9509527168       16.2738861919       17.2898318262
  N         8.8090286699       16.0595257986        6.6999550356
  C        10.1283592990       16.3228164526        6.4334243713
  N         6.6404060880       17.5778266089        3.0403552392
  C         6.3744424758       17.3008834235        1.7243516888
  N         6.6831903565        6.7658163957       13.8626129043
  C         6.4078792987        6.5014783614       12.5443728208
  N         6.6339879330        5.1916673422       19.7301341847
  C         6.3662502315        5.4679561093       21.0457562069
  N         6.6713547771       16.0176818582        8.9020130555
  C         6.3983224684       16.2790888103       10.2212759414
  N        15.9396264978       17.5675255167       19.7228589016
  C        16.2051986160       17.2916790428       21.0396115438
  N        15.8982324810        6.7407102822        8.8971910648
  C        16.1686180595        6.4754097965       10.2164709326
  N        15.9414453531        5.1903104336        3.0342790473
  C        16.2064263658        5.4674716444        1.7178301929
  N        15.9003209362       16.0122466279       13.8582278429
  C        16.1698819919       16.2793231072       12.5395573044
 Zn        14.6043020378       14.7268554770       14.7268554137
 Cl        13.3869090740       13.4877220059       13.4877216812
 Zn        14.6575129785        3.8859844190        3.8859848259
 Cl        13.4373465039        2.6466592849        2.6466605333
 Zn         3.8221452214       14.7137933706        3.9175644051
 Cl         2.5997269855       13.4588621857        2.6971856054
 Zn         3.8221436959        3.9175661356       14.7137933274
 Cl         2.5997263554        2.6971868636       13.4588625210
 Zn         7.9852568097        8.0103004041       14.7713802539
 Cl         9.4445902734        9.1703026761       13.7341825575
 Zn         7.9255463734       18.8941698559        3.8791365161
 Cl         9.1047583225       20.1518749507        2.6212360278
 Zn        18.7683268034        8.0526598151        3.9074066386
 Cl        20.0049784885        9.2904965203        2.6850891477
 Zn        18.7685261737       18.8446886255       14.7101164608
 Cl        20.0040117363       20.0681220571       13.4706602974
 Zn         7.9852576412       14.7713801424        8.0102998680
 Cl         9.4445923272       13.7341827281        9.1703014878
 Zn         7.9255452835        3.8791373021       18.8941698933
 Cl         9.1047569268        2.6212359810       20.1518747768
 Zn        18.7685263953       14.7101165177       18.8446871800
 Cl        20.0040117704       13.4706606636       20.0681211338
 Zn        18.7683269133        3.9074066004        8.0526605822
 Cl        20.0049777498        2.6850890235        9.2904975874
 Zn        14.6028430946        8.0199180062        8.0199186449
 Cl        13.3828750209        9.2590112946        9.2590114103
 Zn        14.6567737412       18.8728872816       18.8728870698
 Cl        13.4297252761       20.1083044795       20.1083045526
 Zn         3.8032986698        8.0538760796       18.8542659589
 Cl         2.5764373092        9.2948108837       20.0829746906
 Zn         3.8032997725       18.8542658320        8.0538756094
 Cl         2.5764384459       20.0829743966        9.2948100623
 Zn        14.6038564168       14.7258022861        8.0222290642
 Cl        13.3846091414       13.4881119847        9.2621746261
 Zn        14.6563902404        3.8904043035       18.8749999343
 Cl        13.4313487911        2.6513811581       20.1092404470
 Zn         3.8154334200       14.7171751879       18.8548103068
 Cl         2.5899892450       13.4720311049       20.0818444747
 Zn         3.8104878282        3.9171713387        8.0568138609
 Cl         2.5866690458        2.6958805559        9.3082249444
 Zn         7.9914445637        7.9998676941        7.9998682375
 Cl         9.4613382990        9.0926304054        9.0926335521
 Zn         7.9343927521       18.8901263602       18.8901256092
 Cl         9.1181545063       20.1455342136       20.1455330665
 Zn        18.7675985811        8.0540127506       18.8421899750
 Cl        20.0032506186        9.2899785368       20.0685379758
 Zn        18.7675993705       18.8421894228        8.0540128636
 Cl        20.0032517124       20.0685376508        9.2899785502
 Zn        14.6038560187        8.0222291437       14.7258026866
 Cl        13.3846086049        9.2621745480       13.4881122497
 Zn        14.6563910935       18.8749997102        3.8904039705
 Cl        13.4313497683       20.1092402991        2.6513807881
 Zn         3.8104881321        8.0568135776        3.9171728010
 Cl         2.5866694947        9.3082239796        2.6958819743
 Zn         3.8154338995       18.8548119638       14.7171743817
 Cl         2.5899896460       20.0818453761       13.4720291820
 Zn         7.9807512459       14.7632959741       14.7632954863
 Cl         9.4316479672       13.6572481964       13.6572478679
 Zn         7.9141532915        3.8690670604        3.8690678070
 Cl         9.0901972239        2.6099571926        2.6099580526
 Zn        18.7688171604       14.7104703534        3.9066885985
 Cl        20.0049898469       13.4698599177        2.6861842514
 Zn        18.7688164026        3.9066889001       14.7104708684
 Cl        20.0049888991        2.6861842040       13.4698605803
 Zn         5.8867911119        5.9628162523       16.8113110498
 Zn        16.7011364114       16.7825717510       16.7825714126
 Zn        16.7021517209        5.9645467927        5.9645475920
 Zn         5.8867918455       16.8113113697        5.9628157365
 Zn         5.8854213288        5.9593964104        5.9593962727
 Zn        16.7012130471       16.7821994275        5.9667276765
 Zn         5.8887882936       16.8086793955       16.8086784810
 Zn        16.7012120011        5.9667280348       16.7822001012
  N         3.6949517711        5.9809848922       16.7858632636
  N        14.5148103758        5.9484457812        5.9484461447
  N        18.8866267464       16.7781256565       16.7781249784
  N         8.0676632557       16.8418496917        5.9263850492
  N        18.8836803829        5.9803198946        5.9803209414
  N         8.0676619775        5.9263859303       16.8418496038
  N         3.6949520564       16.7858640715        5.9809841013
  N        14.5181277508       16.8027245447       16.8027244969
  N        16.7135066389        3.7823389422        5.9719207716
  N        16.6854689533       14.6028473455       16.7845333759
  N        16.7116902926       18.9746371405       16.7858861197
  N        16.6829503206        8.1528489971        5.9675249936
  N         5.8630621763       18.9821253943        5.9741078368
  N         5.8891738808        8.1579584812       16.7947667519
  N         5.8701466853        3.7881146141       16.7947463147
  N         5.9024772775       14.6098625244        5.9885443266
  N         5.8701487982       16.7947465491        3.7881137439
  N         5.9024771589        5.9885444949       14.6098631129
  N        16.7116904474       16.7858862313       18.9746370711
  N        16.6829501691        5.9675247787        8.1528492769
  N         5.8630613813        5.9741083563       18.9821259232
  N         5.8891743988       16.7947673294        8.1579582096
  N        16.7135065498        5.9719194954        3.7823398769
  N        16.6854690034       16.7845340049       14.6028468310
  N         5.8607639828        3.7868737506        5.9731164715
  N         5.8949632416       14.6102230644       16.7880627396
  N        16.7127139050       18.9737832388        5.9747219995
  N        16.6827171943        8.1539848817       16.7839768837
  N         5.8718562339       18.9824036308       16.7957545658
  N         5.8982427414        8.1571249486        5.9802825484
  N        16.7109722099        3.7836195120       16.7866890968
  N        16.6860317964       14.6018796192        5.9695865162
  N         3.6969264850       16.7897975649       16.7897963161
  N        14.5164412048       16.8032121485        5.9522101883
  N        18.8848920036       16.7765458292        5.9797511937
  N         8.0694141243       16.8391736005       16.8391729776
  N        18.8848917450        5.9797514401       16.7765467224
  N         8.0657379733        5.9198311785        5.9198313764
  N         3.6935524946        5.9848097869        5.9848098396
  N        14.5164397235        5.9522108681       16.8032128596
  N        16.7127128796        5.9747223567       18.9737838700
  N        16.6827178861       16.7839764650        8.1539847881
  N        16.7109732562       16.7866885540        3.7836191017
  N        16.6860310969        5.9695863754       14.6018801752
  N         5.8607634637        5.9731160572        3.7868736934
  N         5.8949638857       16.7880633916       14.6102230665
  N         5.8718559425       16.7957551366       18.9824021929
  N         5.8982422154        5.9802822098        8.1571259438
  C        11.2829444183       15.7671670805       15.7671673049
  H        11.2665574185       14.9917670583       14.9917676905
  C        11.2997889391        4.8707876525        4.8707886358
  H        11.3104622365        4.0955117310        4.0955129529
  C         0.4711875700       15.7213089743        4.9228184337
  H         0.4712950077       14.9448842809        4.1482125357
  C         0.4711843587        4.9228192979       15.7213089109
  H         0.4712938342        4.1482134218       14.9448842754
  C        11.2825898857        6.9863983800       15.7630519984
  H        11.2674714146        7.7611812073       14.9870613293
  C        11.3029208684       17.8865170269        4.8778048128
  H        11.3140297158       18.6644640144        4.1051473390
  C         0.4680641280        7.0427453187        4.9261445407
  H         0.4671556328        7.8187600252        4.1510520986
  C         0.4714819745       17.8421888018       15.7255105860
  H         0.4705890814       18.6171123473       14.9493254801
  C        11.2825895988       15.7630519264        6.9863977873
  H        11.2674719887       14.9870613033        7.7611806368
  C        11.3029204070        4.8778051990       17.8865168478
  H        11.3140280232        4.1051476311       18.6644637746
  C         0.4714821926       15.7255113980       17.8421872559
  H         0.4705897781       14.9493261886       18.6171106221
  C         0.4680651096        4.9261439820        7.0427456638
  H         0.4671561891        4.1510515323        7.8187603496
  C        11.2820365357        6.9866712258        6.9866718560
  H        11.2680054260        7.7620598176        7.7620605764
  C        11.3060782851       17.8832193364       17.8832183859
  H        11.3178350908       18.6585404942       18.6585392706
  C         0.4678370670        7.0390053518       17.8384314392
  H         0.4659197342        7.8147104607       18.6139115814
  C         0.4678392739       17.8384316550        7.0390043972
  H         0.4659205349       18.6139118447        7.8147094360
  C        15.6146661119       11.3792157374       15.7322608347
  H        14.8350488194       11.3804806299       14.9607158527
  C        15.6593563250        0.5579760479        4.9139773248
  H        14.8897478201        0.5577476829        4.1323280261
  C         4.8310763883       11.3854822531        4.9434473890
  H         4.0529590654       11.3875292114        4.1700026010
  C         4.8236731835        0.5646714527       15.7190459336
  H         4.0549241964        0.5639800369       14.9368828667
  C        15.6157096014       11.3777922622        7.0227852952
  H        14.8360608738       11.3786900708        7.7944363596
  C        15.6572479605        0.5590925170       17.8456583833
  H        14.8867375017        0.5588489682       18.6263659790
  C         4.8234569591       11.3860917229       17.8336366291
  H         4.0458679777       11.3882411121       18.6074574648
  C         4.8144135276        0.5641094291        7.0502016130
  H         4.0458638265        0.5635397572        7.8324836779
  C         6.9528679224       11.3817574800       15.7314694278
  H         7.7407589916       11.3782072370       14.9694092061
  C         6.9115658453        0.5646993269        4.9119021466
  H         7.6786452302        0.5654756059        4.1275059938
  C        17.7466103462       11.3773495912        4.9199380728
  H        18.5271162173       11.3768698255        4.1495007140
  C        17.7581601534        0.5596485909       15.7127390044
  H        18.5279243927        0.5605613498       14.9316008344
  C         6.9596967828       11.3811501459        7.0456685118
  H         7.7452256714       11.3777077002        7.8097582576
  C         6.9214674024        0.5657025722       17.8563783598
  H         7.6891121089        0.5665754057       18.6401062463
  C        17.7465428669       11.3780150947       17.8341682979
  H        18.5276866058       11.3771968188       18.6041098369
  C        17.7585629857        0.5586761373        7.0487684759
  H        18.5278308904        0.5595929458        7.8303519224
  C        15.6146665947       15.7322607708       11.3792169833
  H        14.8350492201       14.9607157125       11.3804808120
  C        15.6593555182        4.9139771658        0.5579750357
  H        14.8897471287        4.1323279468        0.5577479765
  C         4.8236745316       15.7190460731        0.5646708901
  H         4.0549255879       14.9368832172        0.5639793877
  C         4.8310761114        4.9434471206       11.3854813954
  H         4.0529585993        4.1700023306       11.3875299221
  C         6.9528682787       15.7314698384       11.3817559531
  H         7.7407590793       14.9694095212       11.3782071696
  C         6.9115652616        4.9119021579        0.5646995540
  H         7.6786446362        4.1275057340        0.5654749029
  C        17.7581608512       15.7127387825        0.5596466402
  H        18.5279251580       14.9316005042        0.5605600467
  C        17.7466097473        4.9199379375       11.3773515040
  H        18.5271154571        4.1495006988       11.3768711584
  C        15.6157090848        7.0227850920       11.3777940141
  H        14.8360604267        7.7944360712       11.3786905754
  C        15.6572487809       17.8456584698        0.5590909955
  H        14.8867382988       18.6263662372        0.5588488028
  C         4.8144129734        7.0502018100        0.5641094120
  H         4.0458631129        7.8324839862        0.5635405701
  C         4.8234577823       17.8336374193       11.3860909025
  H         4.0458690242       18.6074582860       11.3882404674
  C         6.9596966962        7.0456683657       11.3811495781
  H         7.7452257075        7.8097581934       11.3777080381
  C         6.9214686988       17.8563783781        0.5657007391
  H         7.6891133040       18.6401061296        0.5665734475
  C        17.7585621552        7.0487682279        0.5586756199
  H        18.5278300330        7.8303515426        0.5595933003
  C        17.7465433449       17.8341685308       11.3780162178
  H        18.5276871908       18.6041102002       11.3771970009
 Kr         8.2843929471       11.3639794061       11.3639784602
