     409
 i =      96, E =    -5186.5827571116
  N         3.0365159045        5.2056887658       16.0178120176
  C         1.7185669689        5.4771437770       16.2859884928
  N        13.8543384072        5.2037586538        5.2037612580
  C        12.5368599114        5.4740079756        5.4740128711
  N        19.7202337519       17.5727445221       16.0165661313
  C        21.0382473306       17.3013684023       16.2852832042
  N         8.9001500237       17.5744923967        5.2053379917
  C        10.2178534099       17.3037749161        5.4743248493
  N        19.7170701489        5.2044754697        6.7606834497
  C        21.0350311538        5.4767432737        6.4928333319
  N         8.9001551745        5.2053354049       17.5744922127
  C        10.2178546363        5.4743225894       17.3037723875
  N         3.0357795124       17.5744079836        6.7617134415
  C         1.7180606727       17.3022417919        6.4929907731
  N        13.8574278739       17.5733502724       17.5733497582
  C        12.5398186988       17.3034704097       17.3034711768
  N        16.0048522778        3.0471398095        5.2037040909
  C        16.2736158740        1.7293910790        5.4750021265
  N        16.0085584486       13.8654435252       16.0163837083
  C        16.2785542610       12.5481679321       16.2860291280
  N        16.0080664665       19.7303504570       17.5729443220
  C        16.2759657064       21.0481997186       17.3010290279
  N        16.0061956677        8.9114004474        6.7603135777
  C        16.2763359513       10.2285746106        6.4903789315
  N         6.7493581838       19.7322289029        5.2058693481
  C         6.4805206653       21.0501234885        5.4771822160
  N         6.7498520989        8.9121452336       16.0180144528
  C         6.4800961942       10.2295674964       16.2879638256
  N         6.7494641818        3.0496390597       17.5746348323
  C         6.4819842676        1.7316307367       17.3026060598
  N         6.7490913755       13.8669865026        6.7616070123
  C         6.4791164190       12.5496409515        6.4916562218
  N         5.1941010596       16.0181348498        3.0490565844
  C         5.4662951537       16.2863266174        1.7313058960
  N         5.1931293571        5.2059692688       13.8672515404
  C         5.4630229375        5.4758081759       12.5497897566
  N        17.5629758289       16.0161073918       19.7304205080
  C        17.2914286748       16.2844677645       21.0483114984
  N        17.5609501274        5.2038005707        8.9107394053
  C        17.2918116433        5.4739556750       10.2282421352
  N         5.1933235879        6.7617981784       19.7321871306
  C         5.4644877942        6.4931978458       21.0500054650
  N         5.1940194972       17.5742477958        8.9123707280
  C         5.4642547405       17.3041399057       10.2297211128
  N        17.5600105331        6.7599549604        3.0474183098
  C        17.2892786345        6.4912344212        1.7295698041
  N        17.5637028350       17.5726878064       13.8656668199
  C        17.2941896822       17.3023336849       12.5481669988
  N         5.1918985564        3.0489582220        6.7616265829
  C         5.4637005717        1.7312243988        6.4931631704
  N         5.1948935775       13.8672800885       17.5742569127
  C         5.4646412374       12.5498080455       17.3041488750
  N        17.5612187301       19.7306348380        6.7598047930
  C        17.2899238753       21.0484543099        6.4911636315
  N        17.5622800608        8.9106149680       17.5730523522
  C        17.2934840646       10.2281676633       17.3024757781
  N         5.1954888969       19.7320548774       16.0179694724
  C         5.4670368844       21.0499105091       16.2862712776
  N         5.1923573579        8.9124356817        5.2059992598
  C         5.4626683831       10.2297944120        5.4758350246
  N        17.5616831372        3.0475887736       16.0159454110
  C        17.2907403398        1.7296530697       16.2843897270
  N        17.5623945795       13.8655951022        5.2041652264
  C        17.2925382351       12.5481296143        5.4740968167
  N         3.0378188243       16.0182097884       17.5745513427
  C         1.7199802048       16.2861387734       17.3021942169
  N        13.8555893291       16.0168235786        6.7595724407
  C        12.5382551727       16.2868943092        6.4895010313
  N        19.7189696715       16.0164205312        5.2045875764
  C        21.0368547984       16.2852094865        5.4765066557
  N         8.9015690737       16.0182936649       16.0182927584
  C        10.2191207957       16.2879862270       16.2879874478
  N        19.7182706702        6.7602441200       17.5731586002
  C        21.0363813428        6.4922919019       17.3016164921
  N         8.8996444154        6.7605649759        6.7605660696
  C        10.2169519089        6.4903862913        6.4903907007
  N         3.0345403473        6.7625124655        5.2062273939
  C         1.7166945438        6.4936862714        5.4776237310
  N        13.8555905207        6.7595758695       16.0168202044
  C        12.5382502592        6.4894981822       16.2868935962
  N        16.0061718904        5.2032914407       19.7304212429
  C        16.2742710699        5.4748015109       21.0482900120
  N        16.0075313406       16.0163944595        8.9112809865
  C        16.2780233710       16.2860037269       10.2284752506
  N        16.0066943303       17.5725960249        3.0471096019
  C        16.2752751682       17.3008713188        1.7293890926
  N        16.0072072578        6.7603078162       13.8653652233
  C        16.2768535875        6.4903469400       12.5481105627
  N         6.7475287546        5.2055977124        3.0494946770
  C         6.4795888177        5.4770961768        1.7315343280
  N         6.7504031840       16.0180111376       13.8670931492
  C         6.4804004673       16.2879249511       12.5496857574
  N         6.7512447024       17.5743913740       19.7320900563
  C         6.4828879075       17.3025295628       21.0500445068
  N         6.7486131693        6.7616578666        8.9123398814
  C         6.4788504775        6.4916659153       10.2297047440
  N        19.7182599518       17.5731537851        6.7602441102
  C        21.0363776892       17.3016132018        6.4922975686
  N         8.9017197671       17.5741084148       17.5741070495
  C        10.2193304892       17.3039557450       17.3039565283
  N         3.0345385273        5.2062282895        6.7625109310
  C         1.7166946049        5.4776216070        6.4936879890
  N        13.8558808474        5.2035908976       17.5732323797
  C        12.5383403305        5.4736443259       17.3031275373
  N         3.0378188618       17.5745521862       16.0182093743
  C         1.7199812458       17.3021958893       16.2861372948
  N        13.8558769245       17.5732390392        5.2035844769
  C        12.5383339741       17.3031280648        5.4736476081
  N        19.7189789418        5.2045882152       16.0164258685
  C        21.0368563187        5.4765034044       16.2852153212
  N         8.8985550495        5.2048463706        5.2048478095
  C        10.2163632315        5.4744329577        5.4744376634
  N         6.7512456589       19.7320925176       17.5743909240
  C         6.4828866314       21.0500465945       17.3025275867
  N         6.7486120940        8.9123391313        6.7616576308
  C         6.4788511589       10.2297050555        6.4916670297
  N         6.7475303106        3.0494958094        5.2055964187
  C         6.4795893800        1.7315346794        5.4770958728
  N         6.7504032693       13.8670937973       16.0180115998
  C         6.4804006344       12.5496866524       16.2879253187
  N        16.0067022950        3.0471180859       17.5725832670
  C        16.2752705417        1.7293914749       17.3008650828
  N        16.0072141118       13.8653676589        6.7603055598
  C        16.2768708386       12.5481195934        6.4903652532
  N        16.0061614553       19.7304272817        5.2032786916
  C        16.2742705709       21.0482920508        5.4747994755
  N        16.0075286566        8.9112833359       16.0163912185
  C        16.2780125576       10.2284849880       16.2860162866
  N        17.5612163814        6.7598049009       19.7306335479
  C        17.2899229872        6.4911645216       21.0484579569
  N        17.5622744534       17.5730488269        8.9106096898
  C        17.2934899766       17.3024587570       10.2281627923
  N         5.1918979720        6.7616270628        3.0489586900
  C         5.4637015051        6.4931620117        1.7312236744
  N         5.1948929600       17.5742575060       13.8672792753
  C         5.4646397545       17.3041501400       12.5498069503
  N        17.5616903942       16.0159433297        3.0475829585
  C        17.2907458930       16.2843955979        1.7296544875
  N        17.5623951817        5.2041621961       13.8655915014
  C        17.2925256893        5.4740742841       12.5481264994
  N         5.1954884579       16.0179705734       19.7320517595
  C         5.4670372559       16.2862723128       21.0499094931
  N         5.1923579713        5.2059983286        8.9124371103
  C         5.4626686629        5.4758344018       10.2297936523
  N        17.5629767738       19.7304261318       16.0161029134
  C        17.2914219165       21.0483149548       16.2844618953
  N        17.5609565703        8.9107376532        5.2037996948
  C        17.2918329106       10.2282502811        5.4739747425
  N         5.1940976841        3.0490570158       16.0181325041
  C         5.4662939497        1.7313084303       16.2863261112
  N         5.1931302411       13.8672534187        5.2059705092
  C         5.4630231443       12.5497893393        5.4758085725
  N        17.5600044472        3.0474187812        6.7599523428
  C        17.2892809456        1.7295728597        6.4912351728
  N        17.5637019683       13.8656684191       17.5726866598
  C        17.2941732457       12.5481756349       17.3023456632
  N         5.1933263743       19.7321871946        6.7617946920
  C         5.4644877314       21.0500055832        6.4931977109
  N         5.1940175116        8.9123713561       17.5742500610
  C         5.4642556898       10.2297228343       17.3041389152
  N        19.7170707057        6.7606875018        5.2044721058
  C        21.0350355956        6.4928319002        5.4767452621
  N         8.9006346049        6.7603570824       16.0180121919
  C        10.2180571468        6.4898797523       16.2874333179
  N         3.0357834078        6.7617168107       17.5744116658
  C         1.7180617263        6.4929871142       17.3022464928
  N        13.8544494561        6.7599440083        6.7599463083
  C        12.5370581582        6.4900429488        6.4900474506
  N         3.0365131074       16.0178118560        5.2056890339
  C         1.7185641909       16.2859859949        5.4771499518
  N        13.8566916284       16.0171664027       16.0171668151
  C        12.5394056652       16.2874405077       16.2874416534
  N        19.7202335871       16.0165691013       17.5727412375
  C        21.0382446183       16.2852845944       17.3013668709
  N         8.9006316124       16.0180163586        6.7603553398
  C        10.2180585396       16.2874346336        6.4898830807
  N         6.7494633483       17.5746328368        3.0496393030
  C         6.4819850739       17.3026060443        1.7316275277
  N         6.7490937841        6.7616096262       13.8669850212
  C         6.4791163969        6.4916563953       12.5496416058
  N         6.7493590102        5.2058693464       19.7322290233
  C         6.4805209932        5.4771820800       21.0501212334
  N         6.7498511248       16.0180149081        8.9121441146
  C         6.4800950207       16.2879647309       10.2295685657
  N        16.0080703594       17.5729436897       19.7303435162
  C        16.2759727715       17.3010342259       21.0481978440
  N        16.0061900443        6.7603141924        8.9114023042
  C        16.2763181672        6.4903566851       10.2285702901
  N        16.0048532996        5.2037018486        3.0471363540
  C        16.2736127930        5.4750003350        1.7293916167
  N        16.0085591275       16.0163845498       13.8654436658
  C        16.2785664575       16.2860131330       12.5481609025
 Zn        14.7157166259       14.7228301029       14.7228242511
 Cl        13.4824655352       13.4910575365       13.4910569743
 Zn        14.7151445384        3.9088333513        3.9088304232
 Cl        13.4765413453        2.6797069124        2.6797078744
 Zn         3.9003105172       14.7258208514        3.9106719828
 Cl         2.6690735784       13.4894424527        2.6815123072
 Zn         3.9003120983        3.9106774365       14.7258240158
 Cl         2.6690746502        2.6815157912       13.4894457168
 Zn         8.0446342361        8.0543113893       14.7239230379
 Cl         9.2756577772        9.2868918797       13.4909625169
 Zn         8.0410736019       18.8696164035        3.9115877542
 Cl         9.2781443065       20.0983939285        2.6806622006
 Zn        18.8522563648        8.0518387993        3.9087596282
 Cl        20.0832755060        9.2880299810        2.6789223651
 Zn        18.8562379405       18.8678391826       14.7246329348
 Cl        20.0868762045       20.0961083021       13.4866674282
 Zn         8.0446386869       14.7239201974        8.0543134724
 Cl         9.2756601059       13.4909615981        9.2868926428
 Zn         8.0410684558        3.9115928247       18.8696132083
 Cl         9.2781401782        2.6806657463       20.0983912894
 Zn        18.8562417152       14.7246357887       18.8678350930
 Cl        20.0868756945       13.4866682741       20.0961071592
 Zn        18.8522578027        3.9087639653        8.0518366070
 Cl        20.0832718201        2.6789249571        9.2880290948
 Zn        14.7140426382        8.0540682779        8.0540619892
 Cl        13.4809539050        9.2859454508        9.2859447492
 Zn        14.7180731490       18.8681358998       18.8681326817
 Cl        13.4798663270       20.0974178658       20.0974182618
 Zn         3.8999886968        8.0534591116       18.8692265779
 Cl         2.6693284694        9.2910058786       20.0977833681
 Zn         3.8999864522       18.8692306074        8.0534614125
 Cl         2.6693277812       20.0977852042        9.2910066414
 Zn        14.7148903493       14.7227314442        8.0539245404
 Cl        13.4816965253       13.4908479423        9.2856838744
 Zn        14.7166032757        3.9084890987       18.8678394835
 Cl        13.4781860803        2.6785813093       20.0963415938
 Zn         3.9015114440       14.7259669583       18.8694311518
 Cl         2.6705039929       13.4889918185       20.0981785895
 Zn         3.8988722760        3.9110283578        8.0536154631
 Cl         2.6679286129        2.6820274879        9.2905364764
 Zn         8.0440496918        8.0544684330        8.0544671999
 Cl         9.2752223321        9.2871779017        9.2871782799
 Zn         8.0432091854       18.8689059841       18.8689054420
 Cl         9.2813148807       20.0981877592       20.0981863700
 Zn        18.8535028523        8.0516058562       18.8686205487
 Cl        20.0853089456        9.2884481025       20.0969967401
 Zn        18.8534935023       18.8686201604        8.0515963602
 Cl        20.0853038721       20.0969887506        9.2884408585
 Zn        14.7148917074        8.0539308150       14.7227260718
 Cl        13.4816911456        9.2856869904       13.4908461054
 Zn        14.7166052011       18.8678412393        3.9084859575
 Cl        13.4781870547       20.0963412398        2.6785796750
 Zn         3.8988721890        8.0536168827        3.9110295164
 Cl         2.6679271432        9.2905370340        2.6820267388
 Zn         3.9015115410       18.8694311468       14.7259647045
 Cl         2.6705046543       20.0981788089       13.4889904477
 Zn         8.0452501795       14.7241027467       14.7241013007
 Cl         9.2761248904       13.4912509995       13.4912509539
 Zn         8.0386375993        3.9106667274        3.9106667710
 Cl         9.2749506302        2.6803669100        2.6803671512
 Zn        18.8549155651       14.7244616622        3.9095417626
 Cl        20.0847565384       13.4871307589        2.6797697835
 Zn        18.8549225978        3.9095437165       14.7244541581
 Cl        20.0847595099        2.6797652283       13.4871278174
 Zn         5.9652372426        5.9857595928       16.7979294611
 Zn        16.7830201730       16.7948736470       16.7948633451
 Zn        16.7804039570        5.9827053559        5.9826938285
 Zn         5.9652391499       16.7979302292        5.9857574855
 Zn         5.9637201692        5.9857733696        5.9857737283
 Zn        16.7816522161       16.7948448551        5.9825477895
 Zn         5.9670136356       16.7979695456       16.7979663745
 Zn        16.7816514311        5.9825616239       16.7948357243
  N         3.7824916047        5.9829329872       16.7972055022
  N        14.6006566746        5.9817634360        5.9817643714
  N        18.9736609623       16.7954475463       16.7954478008
  N         8.1536745632       16.7966095987        5.9832943212
  N        18.9705299502        5.9813216729        5.9813266114
  N         8.1536731102        5.9832937892       16.7966087600
  N         3.7824915754       16.7972096937        5.9829324908
  N        14.6033378780       16.7951535930       16.7951523824
  N        16.7830055776        3.7940082410        5.9811485577
  N        16.7859156095       14.6120627429       16.7947552616
  N        16.7865273146       18.9837086993       16.7955040008
  N        16.7832804768        8.1645889373        5.9819481686
  N         5.9705533010       18.9855871536        5.9830776091
  N         5.9717195580        8.1659237136       16.7961689914
  N         5.9703729270        3.7960568644       16.7975217116
  N         5.9710371867       14.6136918429        5.9838532410
  N         5.9703734871       16.7975212599        3.7960552586
  N         5.9710370327        5.9838530247       14.6136916697
  N        16.7865283548       16.7955010447       18.9837042770
  N        16.7832897957        5.9819557894        8.1645793614
  N         5.9705550626        5.9830770914       18.9855866382
  N         5.9717171959       16.7961708866        8.1659232387
  N        16.7830037249        5.9811407407        3.7940055871
  N        16.7859076603       16.7947658484       14.6120499533
  N         5.9685710683        3.7959397462        5.9827368551
  N         5.9726475586       14.6137212572       16.7961957931
  N        16.7845599677       18.9838400324        5.9807678275
  N        16.7844060124        8.1644942306       16.7950337880
  N         5.9723054715       18.9855113543       16.7972017427
  N         5.9702124527        8.1660588752        5.9839109013
  N        16.7848833204        3.7940323847       16.7951654763
  N        16.7847796295       14.6119858002        5.9822204050
  N         3.7841615742       16.7976341433       16.7976320093
  N        14.6019838506       16.7950470473        5.9816241537
  N        18.9720847984       16.7956087279        5.9812904977
  N         8.1549802376       16.7962973417       16.7962947978
  N        18.9720876534        5.9812895994       16.7956105053
  N         8.1523963257        5.9828947529        5.9828938994
  N         3.7808475407        5.9836645832        5.9836685674
  N        14.6019835622        5.9816191846       16.7950535873
  N        16.7845606197        5.9807694598       18.9838417274
  N        16.7843888137       16.7950331752        8.1644834371
  N        16.7848829946       16.7951655069        3.7940328585
  N        16.7847950870        5.9822208023       14.6119756841
  N         5.9685725961        5.9827353404        3.7959417009
  N         5.9726467623       16.7961964442       14.6137183546
  N         5.9723062884       16.7972044943       18.9855112949
  N         5.9702116912        5.9839087722        8.1660575424
  C        11.3789723849       15.7371413022       15.7371431259
  H        11.3786881700       14.9615331266       14.9615349849
  C        11.3763369723        4.9237912007        4.9237968823
  H        11.3761057093        4.1482652163        4.1482707879
  C         0.5580001805       15.7346507789        4.9274550619
  H         0.5588651921       14.9585192933        4.1524975978
  C         0.5580117263        4.9274514235       15.7346578733
  H         0.5588686072        4.1524959443       14.9585279102
  C        11.3781037306        7.0400222717       15.7363187793
  H        11.3780974192        7.8154415087       14.9605203851
  C        11.3780631472       17.8539047773        4.9235830095
  H        11.3780869124       18.6295570828        4.1481762592
  C         0.5558987917        7.0441098818        4.9276938752
  H         0.5561645011        7.8200801603        4.1525817671
  C         0.5591189267       17.8512573690       15.7348820720
  H         0.5593953284       18.6263721590       14.9589089637
  C        11.3781054251       15.7363233108        7.0400226662
  H        11.3780986604       14.9605256434        7.8154411562
  C        11.3780666859        4.9235837093       17.8538988406
  H        11.3780897055        4.1481780460       18.6295501509
  C         0.5591175631       15.7348838783       17.8512552687
  H         0.5593945271       14.9589103683       18.6263701866
  C         0.5558966164        4.9276952047        7.0441076153
  H         0.5561620888        4.1525845879        7.8200760754
  C        11.3771012081        7.0408172157        7.0408223808
  H        11.3773927918        7.8164261875        7.8164311741
  C        11.3797486064       17.8541310093       17.8541319221
  H        11.3801400920       18.6296616118       18.6296619585
  C         0.5568952212        7.0433411600       17.8515573505
  H         0.5566412570        7.8191949133       18.6267846595
  C         0.5568828076       17.8515512532        7.0433452983
  H         0.5566356653       18.6267790030        7.8191987474
  C        15.7277932123       11.3884123208       15.7350534189
  H        14.9521940623       11.3885576888       14.9594281793
  C        15.7230990414        0.5687158792        4.9250833304
  H        14.9470716566        0.5687100288        4.1500020123
  C         4.9121517187       11.3898305023        4.9254552157
  H         4.1362799655       11.3898888535        4.1502647962
  C         4.9171762022        0.5704491883       15.7353519162
  H         4.1419241754        0.5703192039       14.9595146974
  C        15.7259349047       11.3884644694        7.0412317919
  H        14.9502780753       11.3885883321        7.8167976212
  C        15.7248447514        0.5686923466       17.8507620491
  H        14.9489580637        0.5686334084       18.6259865738
  C         4.9139646325       11.3898536761       17.8546439755
  H         4.1383576730       11.3899041970       18.6300905566
  C         4.9143549807        0.5704877760        7.0439712250
  H         4.1390468298        0.5703089512        7.8197468119
  C         7.0306802002       11.3895456755       15.7370882586
  H         7.8059253881       11.3893450207       14.9611059015
  C         7.0308134603        0.5710598860        4.9273422817
  H         7.8065313021        0.5715361838        4.1519368661
  C        17.8426157601       11.3880513964        4.9232455594
  H        18.6178154250       11.3877873769        4.1473709845
  C        17.8404433753        0.5691426651       15.7332126621
  H        18.6151719265        0.5695642460       14.9568338728
  C         7.0296632083       11.3895728636        7.0423411487
  H         7.8051503290       11.3894280590        7.8180744033
  C         7.0331887878        0.5710198744       17.8522670102
  H         7.8088694159        0.5715123599       18.6276990565
  C        17.8443396173       11.3880059343       17.8530426943
  H        18.6196425417       11.3877728481       18.6288112367
  C        17.8392686615        0.5691253715        7.0422106760
  H        18.6142859644        0.5695574532        7.8183090760
  C        15.7278095234       15.7350377673       11.3884171170
  H        14.9522087495       14.9594168164       11.3885558798
  C        15.7231000420        4.9250858995        0.5687167635
  H        14.9470746980        4.1500056204        0.5687065010
  C         4.9171760747       15.7353517275        0.5704435184
  H         4.1419235881       14.9595141478        0.5703167659
  C         4.9121530727        4.9254559452       11.3898336793
  H         4.1362822592        4.1502662679       11.3898891262
  C         7.0306805657       15.7370873726       11.3895491147
  H         7.8059256643       14.9611049729       11.3893448763
  C         7.0308117893        4.9273438551        0.5710544814
  H         7.8065292443        4.1519388390        0.5715343786
  C        17.8404490662       15.7332212677        0.5691425240
  H        18.6151786712       14.9568406739        0.5695635493
  C        17.8425901983        4.9232250974       11.3880557798
  H        18.6177913273        4.1473547739       11.3877818880
  C        15.7259097835        7.0412106510       11.3884697429
  H        14.9502546751        7.8167802300       11.3885864946
  C        15.7248505925       17.8507694922        0.5686901111
  H        14.9489617954       18.6259947744        0.5686292172
  C         4.9143545035        7.0439716343        0.5704834924
  H         4.1390453307        7.8197483089        0.5703089966
  C         4.9139641079       17.8546445720       11.3898565321
  H         4.1383578439       18.6300905224       11.3899037440
  C         7.0296625883        7.0423406531       11.3895762526
  H         7.8051500277        7.8180743504       11.3894282342
  C         7.0331904033       17.8522685658        0.5710140445
  H         7.8088709963       18.6277006479        0.5715104008
  C        17.8392705388        7.0422145087        0.5691295468
  H        18.6142885698        7.8183124832        0.5695607429
  C        17.8443563592       17.8530277502       11.3880093029
  H        18.6196556250       18.6287986177       11.3877653250
 Kr         0.9311597376       10.7558081288       10.7558078347
