     409
 i =      96, E =    -5186.5876813620
  N         2.8669747364        5.2017749024       16.0154488708
  C         1.5491833729        5.4738506470       16.2848179197
  N        13.6869231529        5.1998693379        5.1998696783
  C        12.3697180342        5.4706606224        5.4706624714
  N        19.5468337122       17.5743149447       16.0177689467
  C        20.8649091280       17.3010609478       16.2849332116
  N         8.7314734472       17.5717491872        5.2045645502
  C        10.0488100070       17.3010398008        5.4758373559
  N        19.5499237473        5.2038557208        6.7600853803
  C        20.8681070276        5.4735076558        6.4896599265
  N         8.7315152509        5.2045376548       17.5717736984
  C        10.0487966881        5.4758270785       17.3010495493
  N         2.8681271160       17.5718208653        6.7582763911
  C         1.5500418480       17.3007993969        6.4900066247
  N        13.6857834515       17.5710581762       17.5710603361
  C        12.3679107064       17.3010971790       17.3011034713
  N        15.8391833937        3.0482232977        5.2040576558
  C        16.1068244478        1.7304642380        5.4760643887
  N        15.8405247195       13.8651887453       16.0138177053
  C        16.1118437705       12.5480816153       16.2822629957
  N        15.8343390469       19.7320213907       17.5728938404
  C        16.1029423243       21.0498932504       17.3012505354
  N        15.8307560286        8.9138240356        6.7625791204
  C        16.1001029392       10.2303502127        6.4890860017
  N         6.5809605219       19.7290265456        5.2043335727
  C         6.3135528245       21.0470669515        5.4758478916
  N         6.5780092030        8.9108119228       16.0152867432
  C         6.3087381609       10.2280020162       16.2861223110
  N         6.5824388221        3.0468730665       17.5722160319
  C         6.3142359130        1.7289931737       17.3003267333
  N         6.5792676951       13.8640273111        6.7597837891
  C         6.3102672244       12.5467409374        6.4891969720
  N         5.0274485559       16.0155849098        3.0470592277
  C         5.2987887506       16.2838438037        1.7293142871
  N         5.0251670396        5.2024326703       13.8641918707
  C         5.2953026959        5.4722238746       12.5467750909
  N        17.3887261371       16.0161117960       19.7314352117
  C        17.1183692410       16.2847285946       21.0494435459
  N        17.3924693844        5.2129128637        8.9102681201
  C        17.1213364956        5.4784055733       10.2282063594
  N         5.0244811501        6.7593367153       19.7300253207
  C         5.2969575820        6.4912165291       21.0476667585
  N         5.0239388903       17.5725169750        8.9100733968
  C         5.2936219410       17.3028891494       10.2275939021
  N        17.3910208067        6.7633106043        3.0481930499
  C        17.1206887837        6.4940445122        1.7302859871
  N        17.3917268473       17.5734151026       13.8658468741
  C        17.1247365731       17.3012365693       12.5483748893
  N         5.0268289728        3.0464248610        6.7591711230
  C         5.2982782766        1.7286574426        6.4910648102
  N         5.0233097290       13.8649179532       17.5735949381
  C         5.2933341945       12.5475417676       17.3034784074
  N        17.3893774605       19.7311148071        6.7625005685
  C        17.1193869550       21.0490768453        6.4934041754
  N        17.3944219956        8.9113969903       17.5715853938
  C        17.1260984305       10.2287979449       17.3002261568
  N         5.0238170375       19.7306231970       16.0160404126
  C         5.2967408084       21.0482621459       16.2839155318
  N         5.0255233046        8.9095285214        5.2023908287
  C         5.2955574905       10.2269125766        5.4722234584
  N        17.3919138821        3.0482920837       16.0156599161
  C        17.1200903709        1.7305728949       16.2844555423
  N        17.3962790184       13.8646144692        5.2046140656
  C        17.1232804644       12.5476596203        5.4736136989
  N         2.8652625895       16.0150976939       17.5716150339
  C         1.5472050024       16.2835091080       17.2996013763
  N        13.6849992112       16.0147172281        6.7674817762
  C        12.3680139392       16.2846505286        6.4954522665
  N        19.5490268077       16.0188057278        5.2038072158
  C        20.8672306641       16.2868050845        5.4750656092
  N         8.7288382741       16.0162517782       16.0162529526
  C        10.0464945764       16.2858877371       16.2858922623
  N        19.5500829524        6.7601576142       17.5753093969
  C        20.8679886834        6.4911953524       17.3029151628
  N         8.7331913532        6.7590891144        6.7590875777
  C        10.0504643618        6.4883199054        6.4883194538
  N         2.8681058980        6.7574201054        5.2010159946
  C         1.5501921487        6.4883008286        5.4722387117
  N        13.6850583591        6.7674617721       16.0147424203
  C        12.3679747388        6.4954852082       16.2846218194
  N        15.8356814408        5.2051672758       19.7314295880
  C        16.1047244767        5.4761239323       21.0493786812
  N        15.8438921014       16.0110710671        8.9115618365
  C        16.1135845124       16.2808290071       10.2287808067
  N        15.8372765997       17.5722560814        3.0493024894
  C        16.1045991983       17.3008808600        1.7312451961
  N        15.8325290613        6.7516528309       13.8668848333
  C        16.1012749778        6.4834257821       12.5494656348
  N         6.5829670209        5.2037695228        3.0461997036
  C         6.3147055159        5.4755635646        1.7283870330
  N         6.5776025786       16.0165604936       13.8651141897
  C         6.3085332433       16.2867655702       12.5477626022
  N         6.5786470282       17.5725967697       19.7295750208
  C         6.3121827587       17.3004103709       21.0476562184
  N         6.5805726882        6.7589079793        8.9095692102
  C         6.3108648265        6.4888696140       10.2268871265
  N        19.5500280672       17.5752769567        6.7601345561
  C        20.8680042241       17.3029001881        6.4912005867
  N         8.7292237867       17.5723116934       17.5723181362
  C        10.0468411996       17.3018836265       17.3018923907
  N         2.8681058779        5.2010176208        6.7574205380
  C         1.5501926307        5.4722409621        6.4882999073
  N        13.6876386117        5.2095975872       17.5692922447
  C        12.3695262445        5.4785049775       17.2997926666
  N         2.8652613293       17.5716189059       16.0150946683
  C         1.5472046510       17.2996045259       16.2835061519
  N        13.6875761734       17.5693164543        5.2095737454
  C        12.3695721571       17.2997761309        5.4785220254
  N        19.5490821040        5.2037824524       16.0187755597
  C        20.8672171237        5.4750610099       16.2868099848
  N         8.7313250829        5.2031887614        5.2031924023
  C        10.0492304559        5.4723692107        5.4723723372
  N         6.5786552491       19.7295925940       17.5725997290
  C         6.3121814635       21.0476486910       17.3004109381
  N         6.5805616333        8.9095533879        6.7589056377
  C         6.3108611493       10.2268937286        6.4888714623
  N         6.5829575653        3.0462155601        5.2037705178
  C         6.3147032250        1.7283795916        5.4755628366
  N         6.5776061596       13.8651012683       16.0165562255
  C         6.3085342493       12.5477685626       16.2867648969
  N        15.8372942791        3.0493576997       17.5722391977
  C        16.1045836935        1.7312094852       17.3008799375
  N        15.8325220911       13.8668856746        6.7516433304
  C        16.1013032438       12.5494744918        6.4834394226
  N        15.8356679973       19.7314750444        5.2051553537
  C        16.1047327430       21.0493417940        5.4761290915
  N        15.8438935212        8.9115634130       16.0110591742
  C        16.1135505699       10.2287880366       16.2808445310
  N        17.3893587418        6.7624929193       19.7310735882
  C        17.1194068904        6.4934360712       21.0491042374
  N        17.3944123864       17.5715970343        8.9113961854
  C        17.1261119638       17.3001944173       10.2287940553
  N         5.0268215854        6.7591777002        3.0464083563
  C         5.2982761436        6.4910639007        1.7286661219
  N         5.0233155598       17.5735869883       13.8649324809
  C         5.2933349127       17.3034748015       12.5475330483
  N        17.3919273455       16.0156450843        3.0482423967
  C        17.1200744996       16.2844870488        1.7305997008
  N        17.3962950365        5.2046229871       13.8646131126
  C        17.1232694360        5.4735883724       12.5476496681
  N         5.0238231792       16.0160483852       19.7306051257
  C         5.2967431543       16.2839143792       21.0482716226
  N         5.0255191864        5.2023875183        8.9095429871
  C         5.2955574662        5.4722241925       10.2269036850
  N        17.3887473960       19.7314895920       16.0160862428
  C        17.1183677945       21.0494225611       16.2847117202
  N        17.3924587405        8.9102591036        5.2129174395
  C        17.1213544238       10.2282054950        5.4784320319
  N         5.0274439533        3.0470771540       16.0155877404
  C         5.2987808044        1.7292923610       16.2838445226
  N         5.0251706464       13.8641793756        5.2024335423
  C         5.2953059541       12.5467951069        5.4722251222
  N        17.3909979440        3.0482453733        6.7632870832
  C        17.1206827791        1.7302620566        6.4940321396
  N        17.3917323122       13.8658445450       17.5734189774
  C        17.1247155064       12.5483766688       17.3012705293
  N         5.0244851465       19.7300385973        6.7593375683
  C         5.2969641764       21.0476447085        6.4912153848
  N         5.0239363446        8.9100639820       17.5725222359
  C         5.2936189481       10.2276136716       17.3028950918
  N        19.5499243625        6.7600840742        5.2038541500
  C        20.8681043358        6.4896641250        5.4735017869
  N         8.7296422692        6.7609365321       16.0162347784
  C        10.0474313571        6.4922482768       16.2854754562
  N         2.8681335229        6.7582802381       17.5718319839
  C         1.5500182365        6.4900115539       17.3008219545
  N        13.6882540734        6.7558303498        6.7558291040
  C        12.3705929402        6.4866555026        6.4866554427
  N         2.8669667392       16.0154557759        5.2017765776
  C         1.5492077171       16.2848232712        5.4738639155
  N        13.6850103764       16.0146355335       16.0146323891
  C        12.3674524242       16.2849975805       16.2849997769
  N        19.5468321705       16.0177696931       17.5743118021
  C        20.8649116838       16.2849386920       17.3010546246
  N         8.7295981534       16.0162615253        6.7609030488
  C        10.0474445813       16.2854879027        6.4922303243
  N         6.5824418162       17.5722134208        3.0468605345
  C         6.3142334035       17.3003167031        1.7290086080
  N         6.5792716644        6.7597823555       13.8640375444
  C         6.3102753455        6.4892013618       12.5467246881
  N         6.5809640463        5.2043335950       19.7290179000
  C         6.3135597591        5.4758412206       21.0470825804
  N         6.5780058965       16.0152913704        8.9108160202
  C         6.3087321259       16.2861286157       10.2279873700
  N        15.8343663866       17.5728755453       19.7319706161
  C        16.1029543836       17.3012591463       21.0499131197
  N        15.8307474439        6.7625875093        8.9138349525
  C        16.1000677323        6.4890728827       10.2303460875
  N        15.8391646830        5.2040297007        3.0481766763
  C        16.1068220299        5.4760608359        1.7304845768
  N        15.8405325005       16.0138212697       13.8651901207
  C        16.1118868910       16.2822473505       12.5480760710
 Zn        14.5480049459       14.7209999524       14.7209998914
 Cl        13.3289131819       13.4817769827       13.4817797098
 Zn        14.5504426352        3.9072768690        3.9072770605
 Cl        13.3150962791        2.6764067146        2.6764137751
 Zn         3.7333592419       14.7237469564        3.9073757838
 Cl         2.5052562431       13.4881807626        2.6740739572
 Zn         3.7333396547        3.9073662604       14.7237344409
 Cl         2.5052553478        2.6740727965       13.4881813084
 Zn         7.8705363517        8.0539939126       14.7217142856
 Cl         9.1091225935        9.2847631252       13.4938194890
 Zn         7.8714869374       18.8674198209        3.9099686152
 Cl         9.1108782845       20.0983483688        2.6833719718
 Zn        18.6804724636        8.0536626039        3.9135184448
 Cl        19.9097627117        9.2932156490        2.6847328294
 Zn        18.6796839496       18.8692849179       14.7251635470
 Cl        19.9132332648       20.0963336803       13.4883254877
 Zn         7.8705250496       14.7217258648        8.0539802270
 Cl         9.1091223607       13.4938149475        9.2847612409
 Zn         7.8714975847        3.9099566207       18.8674324668
 Cl         9.1108760544        2.6833733756       20.0983523524
 Zn        18.6796864050       14.7251589246       18.8692785866
 Cl        19.9132333052       13.4883313683       20.0963341964
 Zn        18.6804779914        3.9135239762        8.0536672662
 Cl        19.9097667139        2.6847373554        9.2932216682
 Zn        14.5390969698        8.0537216158        8.0537212693
 Cl        13.2287287279        9.2453044538        9.2453038972
 Zn        14.5471365272       18.8671455758       18.8671430043
 Cl        13.3050153612       20.0946517325       20.0946542352
 Zn         3.7323240370        8.0506466721       18.8673368891
 Cl         2.4970866685        9.2877929578       20.0919470889
 Zn         3.7323439107       18.8673223703        8.0506334362
 Cl         2.4970866358       20.0919427387        9.2877945994
 Zn        14.5497663593       14.7194329044        8.0560273352
 Cl        13.3510287870       13.4630214091        9.2980320396
 Zn        14.5480848709        3.9132617835       18.8650110955
 Cl        13.3027359040        2.6813534500       20.0848683826
 Zn         3.7313517193       14.7244672613       18.8681846796
 Cl         2.4998630797       13.4875205981       20.0967944092
 Zn         3.7334352268        3.9076685870        8.0507126457
 Cl         2.5016902432        2.6783754760        9.2867478880
 Zn         7.8751520170        8.0529491035        8.0529513031
 Cl         9.0946527799        9.2914047208        9.2914007422
 Zn         7.8670533195       18.8671968475       18.8671935992
 Cl         9.1080445749       20.0953271037       20.0953254197
 Zn        18.6816864716        8.0524538543       18.8694394084
 Cl        19.9104746872        9.2890825559       20.1013502505
 Zn        18.6816765058       18.8694346530        8.0524409150
 Cl        19.9104813934       20.1013541820        9.2890794969
 Zn        14.5497536074        8.0560460038       14.7194145709
 Cl        13.3510298956        9.2980315443       13.4630246757
 Zn        14.5481081228       18.8649909908        3.9132794034
 Cl        13.3027339420       20.0848748215        2.6813465975
 Zn         3.7334348603        8.0507108374        3.9076655387
 Cl         2.5016863879        9.2867423050        2.6783765349
 Zn         3.7313522630       18.8681869681       14.7244683538
 Cl         2.4998665900       20.0967959424       13.4875167119
 Zn         7.8690362592       14.7224422486       14.7224446200
 Cl         9.1034952430       13.4910061583       13.4910073671
 Zn         7.8725809064        3.9084014287        3.9083983312
 Cl         9.1084813355        2.6778408569        2.6778416371
 Zn        18.6849108708       14.7247592490        3.9092445213
 Cl        19.9205987208       13.4907811782        2.6817359439
 Zn        18.6849244445        3.9092407111       14.7247492356
 Cl        19.9205960703        2.6817340914       13.4907835491
 Zn         5.7967510284        5.9811344996       16.7931022576
 Zn        16.6127723454       16.7952487624       16.7952434618
 Zn        16.6127837496        5.9849998878        5.9849958378
 Zn         5.7967696776       16.7931018997        5.9811336019
 Zn         5.7984085245        5.9811517002        5.9811532281
 Zn        16.6148625590       16.7938662061        5.9851667022
 Zn         5.7951302464       16.7942796914       16.7942764987
 Zn        16.6148664404        5.9851896260       16.7938473805
  N         3.6138056069        5.9790125626       16.7941722325
  N        14.4337145090        5.9779082561        5.9779079199
  N        18.8005227339       16.7977856296       16.7977738852
  N         7.9840301429       16.7943997404        5.9821358678
  N        18.8035076861        5.9823201650        5.9823033937
  N         7.9840266332        5.9821305515       16.7944067037
  N         3.6138156837       16.7941716099        5.9790094010
  N        14.4315690903       16.7928691642       16.7928688877
  N        16.6158618869        3.7949790906        5.9829306407
  N        16.6148292118       14.6121224169       16.7945728509
  N        16.6121056855       18.9849800464       16.7952949728
  N        16.6122937542        8.1655207681        5.9895678013
  N         5.8012299404       18.9827687568        5.9807832588
  N         5.8008054823        8.1639096434       16.7935130460
  N         5.8038795353        3.7935792964       16.7949945263
  N         5.8018984316       14.6106549071        5.9813662909
  N         5.8038796503       16.7949897858        3.7935801383
  N         5.8019045984        5.9813695244       14.6106540722
  N        16.6121073919       16.7952939288       18.9849770349
  N        16.6122882281        5.9895837413        8.1655230796
  N         5.8012294970        5.9807851969       18.9827713973
  N         5.8008076282       16.7935085106        8.1639074280
  N        16.6158617836        5.9829218476        3.7949774129
  N        16.6148340188       16.7945897976       14.6121243330
  N         5.8039386364        3.7929568691        5.9803192736
  N         5.8001354752       14.6115426874       16.7949609403
  N        16.6128823743       18.9844730029        5.9834021551
  N        16.6185906100        8.1650688509       16.7919213110
  N         5.7993890286       18.9833753126       16.7956303433
  N         5.8028979390        8.1631318628        5.9808248312
  N        16.6158156852        3.7955139286       16.7947950263
  N        16.6156282954       14.6122720050        5.9785070476
  N         3.6114832139       16.7944235928       16.7944284815
  N        14.4326954306       16.7919176823        5.9891032114
  N        18.8032101996       16.7981442282        5.9812531750
  N         7.9824984202       16.7944393486       16.7944424262
  N        18.8032181410        5.9812580451       16.7981561898
  N         7.9855742979        5.9814736375        5.9814748715
  N         3.6144466321        5.9786859773        5.9786883126
  N        14.4326740862        5.9891246952       16.7918965060
  N        16.6128921601        5.9834368119       18.9844876737
  N        16.6185907669       16.7919136719        8.1650530623
  N        16.6158154021       16.7948126676        3.7955239893
  N        16.6156071700        5.9785049876       14.6122582522
  N         5.8039439248        5.9803195887        3.7929575754
  N         5.8001335746       16.7949620939       14.6115422896
  N         5.7993859538       16.7956334290       18.9833753497
  N         5.8028967592        5.9808188257        8.1631320015
  C        11.2065798688       15.7350306522       15.7350319830
  H        11.2053415102       14.9594464776       14.9594412185
  C        11.2086811292        4.9211108217        4.9211151261
  H        11.2076663485        4.1456349903        4.1456406857
  C         0.3874902063       15.7351473486        4.9249063263
  H         0.3860927810       14.9592535013        4.1496843282
  C         0.3874896488        4.9249096715       15.7351561295
  H         0.3860942277        4.1496998843       14.9592592233
  C        11.2067867290        7.0445421659       15.7347225214
  H        11.2039544985        7.8202103507       14.9592556704
  C        11.2100856280       17.8502306590        4.9263195851
  H        11.2118538746       18.6250188111        4.1500314790
  C         0.3891619077        7.0391852534        4.9229481266
  H         0.3896136158        7.8149334395        4.1476319917
  C         0.3860730131       17.8493231084       15.7331647066
  H         0.3862001069       18.6240157220       14.9567634119
  C        11.2067884579       15.7347189299        7.0445373633
  H        11.2039533080       14.9592364882        7.8202153936
  C        11.2100802921        4.9263181880       17.8502284761
  H        11.2118630596        4.1500356958       18.6250074826
  C         0.3860741712       15.7331661713       17.8493209642
  H         0.3861978646       14.9567640874       18.6240143851
  C         0.3891631930        4.9229503555        7.0391866580
  H         0.3896102497        4.1476330169        7.8149393898
  C        11.2110944223        7.0380984975        7.0380966938
  H        11.2148042746        7.8137644820        7.8137590805
  C        11.2077269338       17.8517425404       17.8517533953
  H        11.2083783659       18.6272727448       18.6272848537
  C         0.3897471565        7.0413634198       17.8512509525
  H         0.3915660513        7.8175400069       18.6261426616
  C         0.3897494642       17.8512399614        7.0413812160
  H         0.3915632973       18.6261370955        7.8175664963
  C        15.5642917027       11.3883602195       15.7282316491
  H        14.7918775077       11.3881630339       14.9494194064
  C        15.5558544050        0.5703695175        4.9253509698
  H        14.7810293118        0.5718943458        4.1490747910
  C         4.7453034690       11.3867879270        4.9211972934
  H         3.9701910654       11.3866335438        4.1452327703
  C         4.7484584770        0.5692354499       15.7325400931
  H         3.9735411853        0.5703295360       14.9563327173
  C        15.5447949529       11.3913744202        7.0319020661
  H        14.7616343062       11.3957127997        7.7996113119
  C        15.5530257201        0.5710418807       17.8509228350
  H        14.7770707508        0.5721382132       18.6260506517
  C         4.7431604585       11.3873614632       17.8540435975
  H         3.9675701561       11.3869680232       18.6295400933
  C         4.7474985981        0.5685093973        7.0416842360
  H         3.9714882204        0.5694443875        7.8167844370
  C         6.8590910335       11.3880700821       15.7354220033
  H         7.6342880446       11.3883613365       14.9593917770
  C         6.8655313824        0.5674185984        4.9264505165
  H         7.6420379199        0.5669430363        4.1518264776
  C        17.6756786582       11.3863921182        4.9278796084
  H        18.4552307723       11.3836301692        4.1563328464
  C        17.6689455748        0.5695710403       15.7336190559
  H        18.4443470611        0.5688853795       14.9578745672
  C         6.8607739062       11.3868717159        7.0402737394
  H         7.6353874941       11.3865537127        7.8169005084
  C         6.8640708418        0.5678970657       17.8501980429
  H         7.6397032177        0.5671297975       18.6256999579
  C        17.6747646855       11.3886602047       17.8527888115
  H        18.4480802039       11.3887581287       18.6305554886
  C        17.6692250672        0.5692900597        7.0452598932
  H        18.4435617276        0.5684838136        7.8220549330
  C        15.5643325800       15.7281961387       11.3883505739
  H        14.7919060009       14.9493900594       11.3881646336
  C        15.5558557316        4.9253494842        0.5703777710
  H        14.7810385611        4.1490690994        0.5718828381
  C         4.7484632258       15.7325365964        0.5692417569
  H         3.9735440948       14.9563273986        0.5703278923
  C         4.7453007541        4.9212005790       11.3867805408
  H         3.9701864900        4.1452403284       11.3866348154
  C         6.8590941132       15.7354206433       11.3880637190
  H         7.6342959337       14.9593885410       11.3883626302
  C         6.8655319270        4.9264534486        0.5674244383
  H         7.6420378217        4.1518340291        0.5669409823
  C        17.6689586393       15.7336278703        0.5695745025
  H        18.4443668074       14.9578738975        0.5688786242
  C        17.6756492526        4.9278547509       11.3863850208
  H        18.4552132020        4.1563251621       11.3836303882
  C        15.5447636082        7.0318688572       11.3913670159
  H        14.7616197996        7.7995836391       11.3957141650
  C        15.5530382841       17.8509352258        0.5710474181
  H        14.7770801496       18.6260649703        0.5721271129
  C         4.7474935948        7.0416794615        0.5685161147
  H         3.9714829206        7.8167736357        0.5694444433
  C         4.7431587454       17.8540407208       11.3873544446
  H         3.9675650175       18.6295388047       11.3869669473
  C         6.8607772344        7.0402695292       11.3868668837
  H         7.6353898307        7.8168911299       11.3865541903
  C         6.8640747953       17.8501966911        0.5679015877
  H         7.6397089176       18.6257019905        0.5671276348
  C        17.6692143309        7.0452640105        0.5692956113
  H        18.4435399294        7.8220490131        0.5684840567
  C        17.6748005739       17.8527571009       11.3886545642
  H        18.4481072678       18.6305392266       11.3887564931
 Kr        16.2085551704       10.8806024360       10.8806037615
