     409
 i =      96, E =    -5186.5858171159
  N         2.8861137577        5.2008106035       16.0040642028
  C         1.5682795223        5.4716875182       16.2731109734
  N        13.6939140420        5.1640156704        5.1640151698
  C        12.3763278229        5.4350551427        5.4350541376
  N        19.5740852709       17.5631733596       16.0077452679
  C        20.8920589590       17.2931484128       16.2771748032
  N         8.7431880657       17.5814805811        5.1863200161
  C        10.0626414714       17.3148147434        5.4497855364
  N        19.5632192830        5.2040102627        6.7599508657
  C        20.8812401152        5.4748710322        6.4909506482
  N         8.7431854750        5.1863203269       17.5814820979
  C        10.0626408499        5.4497872133       17.3148172534
  N         2.8863121244       17.5581235915        6.7579272915
  C         1.5684567065       17.2885129664        6.4881514463
  N        13.7077680744       17.5899710367       17.5899719080
  C        12.3902458158       17.3186488527       17.3186494568
  N        15.8694587687        3.0376009502        5.1927803135
  C        16.1376666641        1.7211253969        5.4678989775
  N        15.8483832405       13.8588564374       16.0039158211
  C        16.1214129316       12.5413619841       16.2701153442
  N        15.8742289246       19.7249426691       17.5680886192
  C        16.1402164722       21.0420100220       17.2926886666
  N        15.8319009570        8.9009792095        6.7569135656
  C        16.1067374917       10.2192749881        6.4949092197
  N         6.5831592328       19.7249437011        5.1986670816
  C         6.3140309020       21.0416349979        5.4723739939
  N         6.6117467805        8.9038803309       16.0132977106
  C         6.3429588652       10.2220492502       16.2823471098
  N         6.5888275740        3.0404884823       17.5719605032
  C         6.3222625304        1.7230926251       17.2985895760
  N         6.6089197294       13.8593603944        6.7490791135
  C         6.3383258971       12.5414207364        6.4809263282
  N         5.0404033687       16.0087543926        3.0406199856
  C         5.3110537512       16.2778813144        1.7227507342
  N         5.0477393132        5.1983492807       13.8589135025
  C         5.3187175922        5.4685001196       12.5417711443
  N        17.4191661120       16.0012897931       19.7229703875
  C        17.1491583605       16.2695913738       21.0415387414
  N        17.3966902746        5.2101238464        8.9034499905
  C        17.1284086315        5.4846053569       10.2204419430
  N         5.0348490093        6.7618873117       19.7209582479
  C         5.3030314358        6.4934061903       21.0397485836
  N         5.0485795376       17.5611369356        8.9058063284
  C         5.3222868201       17.2935792009       10.2228174275
  N        17.4138749742        6.7604282250        3.0412918297
  C        17.1461004424        6.4914739612        1.7226966099
  N        17.4119425730       17.5521008703       13.8590478446
  C        17.1424854241       17.2810584778       12.5416148911
  N         5.0290446333        3.0393774643        6.7606508575
  C         5.3004496276        1.7213312097        6.4927254252
  N         5.0518863281       13.8597118668       17.5644950461
  C         5.3235141578       12.5425645590       17.2951701450
  N        17.4177533802       19.7226770701        6.7603394644
  C        17.1479991222       21.0411772726        6.4916000627
  N        17.4098943751        8.9044666075       17.5571417410
  C        17.1414513536       10.2215309024       17.2835527717
  N         5.0445423817       19.7231019198       16.0084091807
  C         5.3129010588       21.0414829187       16.2776115230
  N         5.0435307472        8.9053450194        5.1990246564
  C         5.3170864895       10.2219731393        5.4687344490
  N        17.4153975506        3.0419360530       16.0004264733
  C        17.1472591966        1.7233467791       16.2692854690
  N        17.4013537509       13.8581120997        5.2151756896
  C        17.1308834141       12.5408379038        5.4870321305
  N         2.8912815568       16.0071775198       17.5627475233
  C         1.5733722750       16.2766811158       17.2926484801
  N        13.7054497633       16.0366792146        6.7231954201
  C        12.3874373949       16.3041493365        6.4553731023
  N        19.5687038542       16.0046614502        5.2021006806
  C        20.8868842301       16.2735556967        5.4720556019
  N         8.7581233376       16.0215853593       16.0215863051
  C        10.0737361004       16.2960524074       16.2960523651
  N        19.5694357467        6.7567684903       17.5612049800
  C        20.8872225962        6.4876097872       17.2900176503
  N         8.7465624355        6.7349478439        6.7349466431
  C        10.0615429567        6.4592258510        6.4592238850
  N         2.8804582383        6.7599852073        5.2037630371
  C         1.5627231611        6.4909462057        5.4749431699
  N        13.7054467339        6.7231960691       16.0366801747
  C        12.3874344312        6.4553751488       16.3041511823
  N        15.8728789207        5.1934081052       19.7248884443
  C        16.1393122977        5.4682629392       21.0416995916
  N        15.8461792419       16.0100539276        8.9023459345
  C        16.1201711827       16.2729637029       10.2203894392
  N        15.8706208595       17.5677684069        3.0388371067
  C        16.1384751792       17.2925416163        1.7220667593
  N        15.8378122533        6.7637064912       13.8591798513
  C        16.1097574179        6.4980151871       12.5412374856
  N         6.5756248602        5.1960039410        3.0386113179
  C         6.3107348485        5.4711644638        1.7214745024
  N         6.6135020378       16.0145814050       13.8604809628
  C         6.3435149566       16.2831943964       12.5426428119
  N         6.5936865051       17.5708178934       19.7255084428
  C         6.3244644550       17.2980521918       21.0426622152
  N         6.6063001042        6.7476659410        8.9017032852
  C         6.3373898826        6.4804172735       10.2203654867
  N        19.5694324397       17.5612139095        6.7567810285
  C        20.8872375151       17.2900127897        6.4876088231
  N         8.7496461184       17.5778901836       17.5778931319
  C        10.0688145191       17.3119623584       17.3119641827
  N         2.8804571783        5.2037610634        6.7599870114
  C         1.5627221239        5.4749430756        6.4909466414
  N        13.7012246767        5.1703724293       17.5941074831
  C        12.3838745964        5.4410173525       17.3216763394
  N         2.8912870960       17.5627582297       16.0071655267
  C         1.5733604584       17.2926471641       16.2766817317
  N        13.7012266196       17.5941077322        5.1703710055
  C        12.3838760724       17.3216737340        5.4410167379
  N        19.5686929851        5.2020974924       16.0046521809
  C        20.8868951091        5.4720605481       16.2735576912
  N         8.7351297146        5.1792997257        5.1793028012
  C        10.0550111684        5.4433993886        5.4434003675
  N         6.5936850690       19.7255144660       17.5708150623
  C         6.3244650826       21.0426548753       17.2980548502
  N         6.6062979458        8.9017016542        6.7476686705
  C         6.3373884519       10.2203680058        6.4804194924
  N         6.5756207837        3.0386070634        5.1960004247
  C         6.3107329514        1.7214785355        5.4711622314
  N         6.6135026861       13.8604889179       16.0145782017
  C         6.3435121327       12.5426350117       16.2831972750
  N        15.8706194224        3.0388339067       17.5677644603
  C        16.1384693918        1.7220725619       17.2925399973
  N        15.8378112033       13.8591804900        6.7637092307
  C        16.1097543293       12.5412349447        6.4980119880
  N        15.8728811246       19.7248930850        5.1934127698
  C        16.1393094733       21.0416935791        5.4682643659
  N        15.8461740529        8.9023401557       16.0100476012
  C        16.1201696886       10.2203992129       16.2729650142
  N        17.4177393720        6.7603311234       19.7226770034
  C        17.1479986437        6.4916010201       21.0411730567
  N        17.4099073993       17.5571557978        8.9044648987
  C        17.1414541952       17.2835527568       10.2215379084
  N         5.0290473732        6.7606479552        3.0393759544
  C         5.3004500394        6.4927240472        1.7213344905
  N         5.0518785158       17.5645021657       13.8597126515
  C         5.3235137695       17.2951679180       12.5425571549
  N        17.4153938636       16.0004298854        3.0419340439
  C        17.1472612015       16.2692877975        1.7233491891
  N        17.4013548196        5.2151732576       13.8581130463
  C        17.1308842052        5.4870375169       12.5408370922
  N         5.0445501453       16.0084177091       19.7231022790
  C         5.3129021394       16.2776101359       21.0414776877
  N         5.0435272968        5.1990218347        8.9053449195
  C         5.3170846940        5.4687332023       10.2219731701
  N        17.4191577187       19.7229719452       16.0012960962
  C        17.1491558848       21.0415348759       16.2695880421
  N        17.3966923831        8.9034498709        5.2101198318
  C        17.1284064238       10.2204437647        5.4845988278
  N         5.0404060955        3.0406187932       16.0087633365
  C         5.3110496576        1.7227543956       16.2778837030
  N         5.0477364204       13.8589125273        5.1983432722
  C         5.3187198801       12.5417687413        5.4685003134
  N        17.4138739139        3.0412894623        6.7604249505
  C        17.1461001003        1.7226988297        6.4914741962
  N        17.4119489161       13.8590505842       17.5521087969
  C        17.1424823830       12.5416084437       17.2810578696
  N         5.0348587192       19.7209568579        6.7618826061
  C         5.3030322837       21.0397430660        6.4934090399
  N         5.0485728129        8.9058030856       17.5611475554
  C         5.3222893933       10.2228244432       17.2935812433
  N        19.5632192048        6.7599535207        5.2040061512
  C        20.8812422482        6.4909509777        5.4748697701
  N         8.7531800492        6.7390473813       16.0219341863
  C        10.0684758768        6.4635953411       16.2968512536
  N         2.8863160288        6.7579362488       17.5581357778
  C         1.5684446969        6.4881497653       17.2885144392
  N        13.6977018056        6.7185717519        6.7185682981
  C        12.3799215298        6.4508802436        6.4508769520
  N         2.8861210612       16.0040560448        5.2007980845
  C         1.5682707174       16.2731128428        5.4716864756
  N        13.7109475684       16.0343009354       16.0342972494
  C        12.3930739761       16.3026379872       16.3026358920
  N        19.5740773155       16.0077356423       17.5631819607
  C        20.8920727858       16.2771777449       17.2931454014
  N         8.7531829324       16.0219294304        6.7390479738
  C        10.0684789431       16.2968481698        6.4635927820
  N         6.5888303738       17.5719575779        3.0404841439
  C         6.3222677623       17.2985889922        1.7230986793
  N         6.6089197913        6.7490771036       13.8593639984
  C         6.3383249131        6.4809234948       12.5414172819
  N         6.5831551791        5.1986706994       19.7249482104
  C         6.3140328561        5.4723721045       21.0416307415
  N         6.6117526934       16.0132924406        8.9038750568
  C         6.3429568610       16.2823478188       10.2220578324
  N        15.8742339721       17.5680892427       19.7249470863
  C        16.1402189923       17.2926944196       21.0420027977
  N        15.8319021606        6.7569134080        8.9009751702
  C        16.1067440670        6.4949113752       10.2192785498
  N        15.8694612974        5.1927758870        3.0375971705
  C        16.1376685875        5.4678943078        1.7211306440
  N        15.8483825057       16.0039132878       13.8588616020
  C        16.1214174562       16.2701170392       12.5413525422
 Zn        14.5468568535       14.7332119117       14.7332070712
 Cl        13.1912469791       13.5672136325       13.5672151283
 Zn        14.5814153375        3.8853253184        3.8853289380
 Cl        13.3860229572        2.6346872677        2.6346933350
 Zn         3.7500247844       14.7162729215        3.9051228108
 Cl         2.5175034306       13.4782265842        2.6787695776
 Zn         3.7500223297        3.9051237427       14.7162728402
 Cl         2.5174976043        2.6787636890       13.4782212467
 Zn         7.9026694906        8.0379056364       14.7227805785
 Cl         9.1297174712        9.2717606337       13.4872048215
 Zn         7.8738444741       18.8737311290        3.8994342255
 Cl         9.1023392807       20.1103808941        2.6672444934
 Zn        18.6981150980        8.0540478951        3.9141365916
 Cl        19.9208420164        9.3046704902        2.6911025388
 Zn        18.7091342598       18.8478369976       14.7140438997
 Cl        19.9318388416       20.0734609701       13.4648660244
 Zn         7.9026701627       14.7227794319        8.0379064579
 Cl         9.1297153025       13.4872047998        9.2717598185
 Zn         7.8738401566        3.8994340179       18.8737320924
 Cl         9.1023350715        2.6672446193       20.1103820068
 Zn        18.7091333665       14.7140421626       18.8478310221
 Cl        19.9318311741       13.4648771388       20.0734535575
 Zn        18.6981198887        3.9141392675        8.0540480457
 Cl        19.9208479975        2.6911038381        9.3046760621
 Zn        14.5264747613        8.0170188262        8.0170195240
 Cl        13.1557117593        9.1753016930        9.1753014283
 Zn        14.5893750944       18.8757115883       18.8757122708
 Cl        13.3805707443       20.1196630643       20.1196614524
 Zn         3.7459767802        8.0532795259       18.8467473176
 Cl         2.5118676779        9.2915583555       20.0719895422
 Zn         3.7459783885       18.8467489281        8.0532790988
 Cl         2.5118634315       20.0719949268        9.2915659487
 Zn        14.5405057458       14.7449609247        8.0288316531
 Cl        13.1765407704       13.6153588047        9.2226946640
 Zn        14.5850260352        3.8889743994       18.8777841415
 Cl        13.3823619229        2.6373514367       20.1201282457
 Zn         3.7546248157       14.7170481096       18.8554651450
 Cl         2.5205198431       13.4794874778       20.0813871718
 Zn         3.7415562213        3.9086760345        8.0534156312
 Cl         2.5069810684        2.6865140268        9.2932545521
 Zn         7.9001847389        8.0332373612        8.0332376319
 Cl         9.1290925380        9.2674538629        9.2674514988
 Zn         7.8846232514       18.8694334219       18.8694333190
 Cl         9.1156544583       20.1022783003       20.1022767380
 Zn        18.7079268081        8.0515119638       18.8501105482
 Cl        19.9324057515        9.2933964623       20.0806409306
 Zn        18.7079312255       18.8501079523        8.0515119635
 Cl        19.9324034908       20.0806342342        9.2933864063
 Zn        14.5405039897        8.0288308306       14.7449614808
 Cl        13.1765414755        9.2226947220       13.6153613248
 Zn        14.5850291417       18.8777842078        3.8889742849
 Cl        13.3823656577       20.1201273212        2.6373504654
 Zn         3.7415559227        8.0534154006        3.9086775303
 Cl         2.5069777616        9.2932549990        2.6865135436
 Zn         3.7546269170       18.8554610047       14.7170459066
 Cl         2.5205287150       20.0813776747       13.4794940028
 Zn         7.9050231403       14.7231761029       14.7231773264
 Cl         9.1292796933       13.4871805660       13.4871821864
 Zn         7.8586724971        3.8936909451        3.8936903183
 Cl         9.0828046006        2.6564728920        2.6564734451
 Zn        18.7015248059       14.7114527280        3.9166754802
 Cl        19.9216572069       13.4536717854        2.6978155536
 Zn        18.7015226753        3.9166793368       14.7114529781
 Cl        19.9216502296        2.6978197829       13.4536798516
 Zn         5.8236720213        5.9713950009       16.7852795523
 Zn        16.6367558417       16.7904785104       16.7904641095
 Zn        16.6236406100        5.9629266576        5.9629314779
 Zn         5.8236719009       16.7852868133        5.9714027311
 Zn         5.8090919154        5.9696677357        5.9696648365
 Zn        16.6302202791       16.7935271230        5.9652311712
 Zn         5.8302454108       16.7867911248       16.7868012921
 Zn        16.6302187879        5.9652393057       16.7935361770
  N         3.6329501152        5.9791252010       16.7812772501
  N        14.4423287644        5.9412869749        5.9412856073
  N        18.8271366999       16.7854108663       16.7854008955
  N         8.0020075957       16.7996434309        5.9656867386
  N        18.8164181398        5.9815199503        5.9815244430
  N         8.0020073893        5.9656880551       16.7996427371
  N         3.6329508102       16.7812861570        5.9791322262
  N        14.4555138860       16.8122081623       16.8122057913
  N        16.6415982155        3.7855906040        5.9744690950
  N        16.6290878605       14.6055885623       16.7798852442
  N        16.6476685541       18.9774563737       16.7870561771
  N        16.6130586535        8.1553866213        5.9799010793
  N         5.8094200566       18.9762475407        5.9785745564
  N         5.8287175758        8.1582367039       16.7867216637
  N         5.8136615897        3.7871018840       16.7915567707
  N         5.8284280298       14.6054055058        5.9732653750
  N         5.8136684735       16.7915596125        3.7871073761
  N         5.8284245537        5.9732621536       14.6054009846
  N        16.6476645008       16.7870647919       18.9774493437
  N        16.6130576136        5.9799009146        8.1553896655
  N         5.8094227484        5.9785682380       18.9762447701
  N         5.8287144850       16.7867245731        8.1582414824
  N        16.6415987707        5.9744687524        3.7855942280
  N        16.6290905628       16.7798931830       14.6055817098
  N         5.8007294971        3.7855833782        5.9760540336
  N         5.8322786916       14.6064320996       16.7895538776
  N        16.6460699295       18.9773941459        5.9747217506
  N        16.6264897345        8.1565397279       16.7868418970
  N         5.8193881867       18.9775625240       16.7906234126
  N         5.8236119997        8.1569642276        5.9727749947
  N        16.6431242258        3.7865691142       16.7862756804
  N        16.6194053211       14.6053267644        5.9873853574
  N         3.6379913422       16.7850993005       16.7851085612
  N        14.4496000464       16.8160751244        5.9470364612
  N        18.8221591403       16.7834099052        5.9793033433
  N         8.0076754938       16.7975581876       16.7975610193
  N        18.8221599410        5.9793090104       16.7834176081
  N         7.9943423803        5.9600214353        5.9600230444
  N         3.6267379383        5.9813025042        5.9812973154
  N        14.4495982095        5.9470355621       16.8160785189
  N        16.6460736810        5.9747322825       18.9774001269
  N        16.6264911413       16.7868321914        8.1565326935
  N        16.6431280520       16.7862689492        3.7865638290
  N        16.6193944972        5.9873873439       14.6053310897
  N         5.8007355434        5.9760530317        3.7855812265
  N         5.8322814096       16.7895526402       14.6064368514
  N         5.8193843338       16.7906215275       18.9775678147
  N         5.8236133880        5.9727741613        8.1569613682
  C        11.2360876817       15.7489651384       15.7489623707
  H        11.2440190656       14.9733806892       14.9733755214
  C        11.2118660194        4.8885801436        4.8885813432
  H        11.2048033909        4.1131822054        4.1131853226
  C         0.4074224250       15.7226041857        4.9220757181
  H         0.4078606318       14.9461809887        4.1474550939
  C         0.4074328238        4.9220801271       15.7226016076
  H         0.4078651616        4.1474625487       14.9461751155
  C        11.2311563687        7.0088269737       15.7489441355
  H        11.2401824874        7.7840381633       14.9729709416
  C        11.2196990472       17.8695992163        4.8956284028
  H        11.2129806207       18.6463672650        4.1215456327
  C         0.4020337146        7.0415392509        4.9250565724
  H         0.4029757128        7.8175116349        4.1499348632
  C         0.4127259504       17.8428048861       15.7262234100
  H         0.4131633896       18.6174487388       14.9497653478
  C        11.2311593999       15.7489403914        7.0088244068
  H        11.2401849987       14.9729662385        7.7840350171
  C        11.2196970777        4.8956297396       17.8696018885
  H        11.2129782906        4.1215469633       18.6463698728
  C         0.4127392051       15.7262244230       17.8428049187
  H         0.4131702536       14.9497667035       18.6174496816
  C         0.4020325799        4.9250582460        7.0415393021
  H         0.4029746788        4.1499375584        7.8175125011
  C        11.2242003753        7.0055760352        7.0055714376
  H        11.2341106032        7.7811882181        7.7811811844
  C        11.2264630188       17.8657863005       17.8657885801
  H        11.2203785260       18.6412394352       18.6412430228
  C         0.4080799490        7.0384425690       17.8393416240
  H         0.4090043927        7.8143627116       18.6145777300
  C         0.4080950088       17.8393366745        7.0384454054
  H         0.4090127060       18.6145701923        7.8143685891
  C        15.5676423610       11.3804969384       15.7237960915
  H        14.7835116224       11.3791981824       14.9572783060
  C        15.5915532513        0.5609497205        4.9138109449
  H        14.8224918484        0.5607035105        4.1315425846
  C         4.7653744071       11.3822032243        4.9204144393
  H         3.9867766716       11.3826511240        4.1480245577
  C         4.7647533132        0.5617661975       15.7242651454
  H         3.9931086504        0.5615907097       14.9448781200
  C        15.5552516283       11.3802012378        7.0439554812
  H        14.7716673081       11.3793863262        7.8108322174
  C        15.5921042319        0.5616779082       17.8462792779
  H        14.8222182169        0.5615938908       18.6277012403
  C         4.7701713134       11.3826295133       17.8427102715
  H         3.9911086772       11.3824957883       18.6147318820
  C         4.7550381748        0.5601195590        7.0469846764
  H         3.9836512561        0.5598776678        7.8265229444
  C         6.8963885720       11.3823610088       15.7346287319
  H         7.6746771903       11.3826084929       14.9617100026
  C         6.8607998334        0.5620612401        4.9191542051
  H         7.6326671682        0.5630799377        4.1398026001
  C        17.6829062121       11.3806313710        4.9386955097
  H        18.4606796399       11.3808728448        4.1652323934
  C        17.6940724086        0.5627961945       15.7146954479
  H        18.4642363268        0.5633206589       14.9339670614
  C         6.8905788834       11.3805264551        7.0292598142
  H         7.6687711687       11.3802407459        7.8023573216
  C         6.8718691293        0.5632677627       17.8506173068
  H         7.6444406774        0.5640078793       18.6291752647
  C        17.6952652349       11.3818836518       17.8298599963
  H        18.4727300939       11.3826209269       18.6036250181
  C        17.6929120154        0.5623937446        7.0464020515
  H        18.4628984221        0.5630356288        7.8273151111
  C        15.5676465365       15.7237963973       11.3804880376
  H        14.7835167348       14.9572779595       11.3791925026
  C        15.5915554416        4.9138032303        0.5609546693
  H        14.8224960898        4.1315318076        0.5607057815
  C         4.7647565260       15.7242630081        0.5617602348
  H         3.9931118376       14.9448758178        0.5615878607
  C         4.7653717829        4.9204159000       11.3822056224
  H         3.9867724948        4.1480283333       11.3826522690
  C         6.8963896191       15.7346281517       11.3823678054
  H         7.6746793351       14.9617105301       11.3826116920
  C         6.8608006527        4.9191576390        0.5620578839
  H         7.6326689733        4.1398078550        0.5630777152
  C        17.6940757451       15.7146972583        0.5628009366
  H        18.4642395160       14.9339683728        0.5633220982
  C        17.6829107068        4.9387005617       11.3806288583
  H        18.4606846894        4.1652364619       11.3808722698
  C        15.5552570061        7.0439599858       11.3802027638
  H        14.7716726722        7.8108373803       11.3793862682
  C        15.5921106438       17.8462835014        0.5616735258
  H        14.8222260755       18.6277064708        0.5615927550
  C         4.7550345306        7.0469826235        0.5601254607
  H         3.9836446784        7.8265189075        0.5598821071
  C         4.7701695315       17.8427058901       11.3826201067
  H         3.9911058134       18.6147257000       11.3824898965
  C         6.8905814728        7.0292573247       11.3805247810
  H         7.6687757125        7.8023533757       11.3802398453
  C         6.8718722792       17.8506163978        0.5632724634
  H         7.6444436091       18.6291748081        0.5640095812
  C        17.6929086451        7.0464012010        0.5623883193
  H        18.4628924993        7.8273154300        0.5630336091
  C        17.6952696487       17.8298606936       11.3818936815
  H        18.4727355553       18.6036253806       11.3826263286
 Kr        15.1390498441       11.3539993794       11.3539984109
