     409
 i =      96, E =    -5186.5873597930
  N         2.9871604008        5.2102764386       16.0264321919
  C         1.6689167561        5.4809675248       16.2925291832
  N        13.7936297911        5.2068432197        5.2068373086
  C        12.4767836249        5.4792427603        5.4792412103
  N        19.6793320708       17.5727457735       16.0165134552
  C        20.9972226857       17.3037557558       16.2876557288
  N         8.8498855252       17.5777488562        5.2147035835
  C        10.1675889496       17.3050862054        5.4807205778
  N        19.6580120343        5.2027005242        6.7590202811
  C        20.9759755431        5.4773217673        6.4934680473
  N         8.8498788722        5.2147081901       17.5777485505
  C        10.1675847368        5.4807246377       17.3050887260
  N         2.9835261994       17.5814867155        6.7672560527
  C         1.6662455283       17.3081931073        6.4973114076
  N        13.8150197562       17.5730050013       17.5730072707
  C        12.4971230180       17.3039767240       17.3039813802
  N        15.9433067903        3.0459429196        5.2037339060
  C        16.2137026142        1.7281174688        5.4741279607
  N        15.9645120042       13.8654647080       16.0158503428
  C        16.2335259724       12.5479943807       16.2855373134
  N        15.9652586376       19.7282453419       17.5710206909
  C        16.2310282143       21.0462848680       17.2982151467
  N        15.9511440883        8.9117338705        6.7600616657
  C        16.2218641868       10.2287698286        6.4893801255
  N         6.6990556977       19.7409664339        5.2145661182
  C         6.4274606264       21.0586365088        5.4847297403
  N         6.6984598086        8.9169078977       16.0221174255
  C         6.4293562661       10.2345505392       16.2914631966
  N         6.7007285764        3.0579060919       17.5827022057
  C         6.4349702092        1.7394101183       17.3105293036
  N         6.6955501346       13.8737690832        6.7653807782
  C         6.4236170152       12.5566883432        6.4967354934
  N         5.1447601867       16.0265160341        3.0552778612
  C         5.4188754139       16.2945378518        1.7377851429
  N         5.1380697038        5.2118923186       13.8752663502
  C         5.4060851431        5.4824287795       12.5575634675
  N        17.5206717362       16.0143892985       19.7297808342
  C        17.2467243641       16.2818544898       21.0475232377
  N        17.5041625507        5.2021684588        8.9096431688
  C        17.2365089991        5.4722280243       10.2275187622
  N         5.1413813977        6.7688929317       19.7389584511
  C         5.4107129711        6.5001115472       21.0570680191
  N         5.1436841985       17.5797397407        8.9186174958
  C         5.4146083187       17.3088018324       10.2357365831
  N        17.4997923985        6.7584800924        3.0470129975
  C        17.2302850436        6.4894556817        1.7290963665
  N        17.5213010866       17.5711137158       13.8644238759
  C        17.2498659605       17.3012431623       12.5471114781
  N         5.1335418067        3.0559811117        6.7702387212
  C         5.4064562448        1.7383789112        6.5009810077
  N         5.1509628265       13.8737540659       17.5803093909
  C         5.4179419595       12.5559042520       17.3089588392
  N        17.5088976545       19.7307100151        6.7569350831
  C        17.2351396498       21.0481720542        6.4887596895
  N        17.5129716072        8.9090927987       17.5731817559
  C        17.2459637320       10.2269413957       17.3019742580
  N         5.1534162726       19.7382064633       16.0245335949
  C         5.4231381642       21.0562352524       16.2936772714
  N         5.1305956558        8.9203909710        5.2160405389
  C         5.4025737367       10.2377846920        5.4843612787
  N        17.5127503157        3.0473012824       16.0134837649
  C        17.2426237399        1.7290537122       16.2815194844
  N        17.5126146394       13.8646126599        5.2035232477
  C        17.2406046387       12.5473049071        5.4726797797
  N         2.9966369280       16.0258625985       17.5817676390
  C         1.6787230122       16.2921427154       17.3081262207
  N        13.8058074506       16.0159514762        6.7600974781
  C        12.4883063429       16.2863996536        6.4916220062
  N        19.6703033732       16.0171831349        5.2046447284
  C        20.9876788159       16.2877372574        5.4776515819
  N         8.8575758461       16.0209662296       16.0209674431
  C        10.1752720934       16.2900226296       16.2900249743
  N        19.6663929284        6.7594213182       17.5745097345
  C        20.9848956418        6.4931940137       17.3043394092
  N         8.8424211953        6.7718086729        6.7718054915
  C        10.1593952952        6.5001735183        6.5001705651
  N         2.9753358917        6.7687571459        5.2127291696
  C         1.6574741205        6.4982883457        5.4822534099
  N        13.8058011500        6.7601040162       16.0159524339
  C        12.4883051414        6.4916215210       16.2864039737
  N        15.9533285844        5.2008200452       19.7284717616
  C        16.2189503231        5.4729236376       21.0467769023
  N        15.9585719295       16.0161797746        8.9110565172
  C        16.2305276164       16.2855468922       10.2281170154
  N        15.9563165419       17.5690553000        3.0451557593
  C        16.2265507673       17.2974677552        1.7276474772
  N        15.9569126605        6.7595901163       13.8655405586
  C        16.2249792300        6.4890567399       12.5481442932
  N         6.6891126326        5.2146379247        3.0585649739
  C         6.4224845185        5.4850385000        1.7401542901
  N         6.7042754905       16.0222909298       13.8719064864
  C         6.4322495345       16.2913829946       12.5546983567
  N         6.7098452240       17.5806076573       19.7397295457
  C         6.4393872618       17.3096073075       21.0575271693
  N         6.6882205708        6.7698605416        8.9201950601
  C         6.4202494227        6.4985479912       10.2373447295
  N        19.6664059908       17.5745116669        6.7594292929
  C        20.9848845902       17.3043342907        6.4931983491
  N         8.8597270331       17.5772607418       17.5772676689
  C        10.1768348090       17.3060780633       17.3060849121
  N         2.9753380181        5.2127251896        6.7687550565
  C         1.6574728920        5.4822486047        6.4982895547
  N        13.8050161085        5.2033792874       17.5713552981
  C        12.4876878036        5.4755526777       17.3023550347
  N         2.9966288919       17.5817744302       16.0258592478
  C         1.6787284497       17.3081284837       16.2921430484
  N        13.8050027917       17.5713568624        5.2033679009
  C        12.4876966855       17.3023529738        5.4755495835
  N        19.6703149226        5.2046410296       16.0171736715
  C        20.9876801326        5.4776491995       16.2877353475
  N         8.8382323080        5.2164645946        5.2164627214
  C        10.1564598792        5.4842859695        5.4842836520
  N         6.7098461527       19.7397272096       17.5806067825
  C         6.4393846431       21.0575263306       17.3096065647
  N         6.6882250317        8.9202001697        6.7698658987
  C         6.4202522381       10.2373476578        6.4985490770
  N         6.6891153879        3.0585609907        5.2146296074
  C         6.4224846474        1.7401486139        5.4850350254
  N         6.7042810459       13.8718951648       16.0222826790
  C         6.4322497651       12.5547071292       16.2913823620
  N        15.9563183569        3.0451632345       17.5690568333
  C        16.2265460484        1.7276301208       17.2974642665
  N        15.9568962661       13.8655242238        6.7595859309
  C        16.2249724588       12.5481593153        6.4890583284
  N        15.9533401803       19.7284537143        5.2008320610
  C        16.2189585309       21.0467648828        5.4729281795
  N        15.9585684608        8.9110673654       16.0161698114
  C        16.2305173972       10.2281251094       16.2855468510
  N        17.5088815633        6.7569339162       19.7307032175
  C        17.2351317374        6.4887659625       21.0481914761
  N        17.5129719274       17.5731916297        8.9091043842
  C        17.2459672919       17.3019698688       10.2269231022
  N         5.1335351960        6.7702429859        3.0559756932
  C         5.4064541891        6.5009808883        1.7383878815
  N         5.1509570857       17.5803135026       13.8737493624
  C         5.4179409866       17.3089573804       12.5559019950
  N        17.5127529390       16.0134785752        3.0472985843
  C        17.2426316404       16.2815202834        1.7290660159
  N        17.5126233307        5.2035368514       13.8646278580
  C        17.2406053207        5.4726861389       12.5472897828
  N         5.1534116085       16.0245329143       19.7382072015
  C         5.4231361933       16.2936753154       21.0562386190
  N         5.1305892617        5.2160383387        8.9203939660
  C         5.4025712009        5.4843642980       10.2377778972
  N        17.5206675071       19.7297750263       16.0143919287
  C        17.2467204782       21.0475216717       16.2818527744
  N        17.5041553156        8.9096471918        5.2021575841
  C        17.2365044378       10.2275068063        5.4722212678
  N         5.1447603805        3.0552889123       16.0265218999
  C         5.4188725989        1.7377856810       16.2945401826
  N         5.1380655807       13.8752564749        5.2118824333
  C         5.4060884158       12.5575660062        5.4824261350
  N        17.4997949227        3.0470166655        6.7584743302
  C        17.2302898228        1.7290971170        6.4894547404
  N        17.5213053174       13.8644108945       17.5711191285
  C        17.2498617249       12.5471035713       17.3012459089
  N         5.1413747028       19.7389689369        6.7689000075
  C         5.4107136684       21.0570633933        6.5001123054
  N         5.1436834869        8.9186165857       17.5797415955
  C         5.4146097910       10.2357379470       17.3088030602
  N        19.6580030721        6.7590129693        5.2027096777
  C        20.9759779252        6.4934650287        5.4773270417
  N         8.8509561614        6.7677862747       16.0197206315
  C        10.1682191622        6.4954800312       16.2880064082
  N         2.9835148483        6.7672599736       17.5814915546
  C         1.6662387433        6.4973114178       17.3081964604
  N        13.7979769968        6.7630748984        6.7630690365
  C        12.4797243683        6.4953415487        6.4953394706
  N         2.9871482052       16.0264290848        5.2102626942
  C         1.6689334950       16.2925318445        5.4809643546
  N        13.8127326922       16.0172595465       16.0172548867
  C        12.4955748581       16.2880436104       16.2880431348
  N        19.6793508662       16.0165019483       17.5727531772
  C        20.9972155674       16.2876538598       17.3037552196
  N         8.8509649937       16.0197139330        6.7677883374
  C        10.1682192116       16.2880025655        6.4954774573
  N         6.7007367789       17.5827020384        3.0579027681
  C         6.4349743879       17.3105259880        1.7394064370
  N         6.6955501879        6.7653822575       13.8737671669
  C         6.4236157855        6.4967368928       12.5566897867
  N         6.6990557872        5.2145724045       19.7409602326
  C         6.4274599538        5.4847336982       21.0586387599
  N         6.6984702045       16.0221087080        8.9169222640
  C         6.4293574640       16.2914619599       10.2345437742
  N        15.9652665536       17.5710131275       19.7282338414
  C        16.2310334405       17.2982142448       21.0462943002
  N        15.9511524580        6.7600683752        8.9117306597
  C        16.2218728931        6.4893813682       10.2287811622
  N        15.9433064837        5.2037290233        3.0459421750
  C        16.2137004544        5.4741216048        1.7281126985
  N        15.9645110759       16.0158447938       13.8654568209
  C        16.2335311352       16.2855335451       12.5480122688
 Zn        14.6690622673       14.7231612946       14.7231558081
 Cl        13.4352609738       13.4917241641       13.4917274935
 Zn        14.6543940321        3.9105766320        3.9105866944
 Cl        13.4117545578        2.6834055800        2.6834120381
 Zn         3.8487630674       14.7351248270        3.9152188229
 Cl         2.6157404269       13.5003860739        2.6860810947
 Zn         3.8487642630        3.9152183820       14.7351230568
 Cl         2.6157390040        2.6860811979       13.5003882731
 Zn         7.9914122455        8.0587417404       14.7254245405
 Cl         9.2085738290        9.2952377645       13.4823392631
 Zn         7.9930374924       18.8754117071        3.9259777095
 Cl         9.2307600604       20.1012263836        2.6920607300
 Zn        18.7921497845        8.0499484951        3.9065423068
 Cl        20.0241510864        9.2833436644        2.6746291544
 Zn        18.8160216321       18.8664966575       14.7234971397
 Cl        20.0453154530       20.0939687403       13.4837450326
 Zn         7.9914138238       14.7254259776        8.0587417215
 Cl         9.2085753063       13.4823368390        9.2952348992
 Zn         7.9930344119        3.9259800952       18.8754134135
 Cl         9.2307576050        2.6920629080       20.1012283470
 Zn        18.8160220948       14.7235002842       18.8664984895
 Cl        20.0453187376       13.4837462890       20.0939666779
 Zn        18.7921517928        3.9065357172        8.0499499255
 Cl        20.0241554290        2.6746308518        9.2833513136
 Zn        14.6602096230        8.0556741935        8.0556748761
 Cl        13.4308224519        9.2894966235        9.2894983154
 Zn        14.6742788970       18.8670287254       18.8670335080
 Cl        13.4392576813       20.0978729763       20.0978728932
 Zn         3.8478692011        8.0592526771       18.8738991626
 Cl         2.6210000439        9.2991982646       20.1039474232
 Zn         3.8478678301       18.8738974289        8.0592508977
 Cl         2.6209999927       20.1039451435        9.2991994497
 Zn        14.6646478716       14.7226615534        8.0544126631
 Cl        13.4308470656       13.4916208960        9.2863325728
 Zn        14.6645850149        3.9058309602       18.8639228917
 Cl        13.4258343563        2.6765651691       20.0926022761
 Zn         3.8584578843       14.7328692971       18.8749009886
 Cl         2.6279803932       13.4975193212       20.1060213030
 Zn         3.8405943718        3.9204366455        8.0598555351
 Cl         2.6103913288        2.6902648245        9.2970178323
 Zn         7.9805034391        8.0633377084        8.0633375801
 Cl         9.2091631045        9.2978524141        9.2978508232
 Zn         8.0016717580       18.8731606419       18.8731595308
 Cl         9.2443714793       20.1001750677       20.1001742135
 Zn        18.8022707820        8.0496905160       18.8704654896
 Cl        20.0358729737        9.2850772923       20.0984002646
 Zn        18.8022745984       18.8704634366        8.0496895903
 Cl        20.0358759754       20.0984038390        9.2850791213
 Zn        14.6646423176        8.0544097037       14.7226610028
 Cl        13.4308482796        9.2863354160       13.4916216523
 Zn        14.6645896902       18.8639181717        3.9058359575
 Cl        13.4258397242       20.0925984930        2.6765676489
 Zn         3.8405934801        8.0598536582        3.9204393364
 Cl         2.6103874480        9.2970135217        2.6902680189
 Zn         3.8584597930       18.8749008973       14.7328691429
 Cl         2.6279815985       20.1060219278       13.4975178016
 Zn         7.9978984265       14.7266137855       14.7266151436
 Cl         9.2221026924       13.4904386322       13.4904398119
 Zn         7.9788440952        3.9251690388        3.9251672157
 Cl         9.2165494717        2.6947119896        2.6947121010
 Zn        18.8090693284       14.7237211165        3.9105091136
 Cl        20.0353151242       13.4849353748        2.6790447834
 Zn        18.8090676978        3.9105039680       14.7237200225
 Cl        20.0353137109        2.6790418956       13.4849342710
 Zn         5.9152060498        5.9935143597       16.8088623568
 Zn        16.7476527911       16.7926263645       16.7926233044
 Zn        16.7225732746        5.9812587256        5.9812686423
 Zn         5.9152075492       16.8088638164        5.9935143802
 Zn         5.9046310513        5.9956789188        5.9956782654
 Zn        16.7313445239       16.7929423748        5.9797945944
 Zn         5.9338434412       16.8081834635       16.8081841992
 Zn        16.7313452217        5.9797925952       16.7929457051
  N         3.7317933242        5.9885407836       16.8059899527
  N        14.5419835161        5.9840230835        5.9840220424
  N        18.9328619727       16.7940915178       16.7940662183
  N         8.1036381580       16.8000648196        5.9928383592
  N        18.9115534089        5.9783579303        5.9783512428
  N         8.1036383636        5.9928422543       16.8000619445
  N         3.7317924778       16.8060053042        5.9885516545
  N        14.5605334685       16.7946793693       16.7946775790
  N        16.7214982533        3.7931532339        5.9807910197
  N        16.7434624990       14.6113131712       16.7935046582
  N        16.7453093491       18.9823165073       16.7941619583
  N        16.7267136776        8.1641650947        5.9811989015
  N         5.9208000639       18.9934832809        5.9913326688
  N         5.9206690297        8.1715761992       16.8013823208
  N         5.9203074440        3.8031797025       16.8057711721
  N         5.9178730895       14.6212901964        5.9883860170
  N         5.9203136303       16.8057699410        3.8031847038
  N         5.9178620261        5.9883771729       14.6212827716
  N        16.7452971743       16.7941723487       18.9823269592
  N        16.7267183067        5.9811913775        8.1641605842
  N         5.9207932685        5.9913420225       18.9934928614
  N         5.9206587566       16.8013936409        8.1715686591
  N        16.7214934709        5.9807801545        3.7931665299
  N        16.7434766964       16.7935161003       14.6113037094
  N         5.9096284806        3.8039734243        5.9920833830
  N         5.9290692761       14.6195912419       16.8019840648
  N        16.7333151168       18.9828544315        5.9778386572
  N        16.7344100053        8.1635487227       16.7952371401
  N         5.9318213127       18.9925257276       16.8032513923
  N         5.9082405433        8.1739428872        5.9938761455
  N        16.7345193613        3.7927830788       16.7923357090
  N        16.7355918668       14.6115097057        5.9819056629
  N         3.7433695607       16.8058596200       16.8058699508
  N        14.5516440269       16.7932382312        5.9808599149
  N        18.9217102477       16.7957343466        5.9800446502
  N         8.1124389259       16.7997426453       16.7997463027
  N        18.9217024723        5.9800545181       16.7957498671
  N         8.0935691049        5.9950536560        5.9950521934
  N         3.7217171378        5.9909572707        5.9909618525
  N        14.5516396802        5.9808421974       16.7932572795
  N        16.7333287733        5.9778584573       18.9828519342
  N        16.7343976304       16.7952285206        8.1635590600
  N        16.7345231493       16.7923315014        3.7927881133
  N        16.7355884631        5.9819071375       14.6115132737
  N         5.9096386357        5.9920746205        3.8039734993
  N         5.9290852368       16.8019697005       14.6195900160
  N         5.9318202345       16.8032552401       18.9925222167
  N         5.9082488687        5.9938841422        8.1739438510
  C        11.3345447773       15.7384419002       15.7384401449
  H        11.3334029479       14.9628437498       14.9628373001
  C        11.3142524788        4.9313274616        4.9313246964
  H        11.3102022251        4.1558001819        4.1557964795
  C         0.5101484170       15.7391317406        4.9297859106
  H         0.5138519991       14.9631145415        4.1547060911
  C         0.5101459276        4.9297920139       15.7391273596
  H         0.5138506039        4.1547185659       14.9631055606
  C        11.3287391136        7.0437212045       15.7361027001
  H        11.3300025897        7.8189407052       14.9601573687
  C        11.3270695946       17.8542960818        4.9276545527
  H        11.3261221302       18.6300920731        4.1523465994
  C         0.4967876868        7.0469762445        4.9305045533
  H         0.4973100316        7.8232663985        4.1557188516
  C         0.5180457523       17.8557515717       15.7392997719
  H         0.5182360828       18.6312128959       14.9636619857
  C        11.3287400889       15.7360976524        7.0437182045
  H        11.3300029495       14.9601509200        7.8189366154
  C        11.3270656184        4.9276573448       17.8543033996
  H        11.3261151758        4.1523522716       18.6301013980
  C         0.5180444641       15.7392985457       17.8557476440
  H         0.5182341104       14.9636593279       18.6312070288
  C         0.4967881170        4.9304988361        7.0469762216
  H         0.4973110177        4.1557110981        7.8232648000
  C        11.3217085301        7.0483718685        7.0483676435
  H        11.3250925637        7.8239639106        7.8239574708
  C        11.3379782760       17.8554772300       17.8554860995
  H        11.3392170802       18.6310131372       18.6310254828
  C         0.5037676459        7.0461793256       17.8558281581
  H         0.5008374798        7.8221807054       18.6309043596
  C         0.5037682593       17.8558242606        7.0461852938
  H         0.5008391537       18.6308991113        7.8221904793
  C        15.6815600263       11.3886926898       15.7346787613
  H        14.9059209852       11.3896154586       14.9591169424
  C        15.6649929616        0.5665433753        4.9242573229
  H        14.8882736848        0.5651183760        4.1498891569
  C         4.8528251637       11.3980651076        4.9335924485
  H         4.0763062054       11.3985103368        4.1590723654
  C         4.8712243961        0.5762688829       15.7435104907
  H         4.0955004001        0.5748953183       14.9681014315
  C        15.6728977787       11.3891602439        7.0401941350
  H        14.8976579526       11.3901429779        7.8161432445
  C        15.6777821497        0.5661421229       17.8473183124
  H        14.9017889215        0.5648516125       18.6224435634
  C         4.8664277469       11.3965786594       17.8599798816
  H         4.0921426974       11.3974910553       18.6367378672
  C         4.8585693998        0.5766119333        7.0509914444
  H         4.0832197631        0.5746537354        7.8267112984
  C         6.9801791080       11.3939616371       15.7394957804
  H         7.7541904205       11.3928422885       14.9622704603
  C         6.9755995860        0.5806424855        4.9349240072
  H         7.7512668573        0.5828924303        4.1594822842
  C        17.7885985379       11.3865021313        4.9212409006
  H        18.5633627189       11.3851304264        4.1449266730
  C        17.7938724277        0.5691692961       15.7304480455
  H        18.5685050369        0.5709006304       14.9539989535
  C         6.9739889970       11.3966018295        7.0470389337
  H         7.7509428934       11.3959210905        7.8211954617
  C         6.9879564028        0.5793106460       17.8595291389
  H         7.7639327937        0.5808228914       18.6345926832
  C        17.7986687749       11.3862511226       17.8518964547
  H        18.5744008620       11.3851234670       18.6272351553
  C        17.7827757479        0.5696123758        7.0397241761
  H        18.5584971611        0.5716411972        7.8151235630
  C        15.6815649210       15.7346740788       11.3886952755
  H        14.9059242148       14.9591111223       11.3896162193
  C        15.6649948416        4.9242542331        0.5665462176
  H        14.8882811004        4.1498822602        0.5651221566
  C         4.8712261787       15.7435107851        0.5762686366
  H         4.0955010928       14.9681032441        0.5748955237
  C         4.8528195759        4.9335959767       11.3980648168
  H         4.0762983225        4.1590774394       11.3985087686
  C         6.9801800199       15.7394960180       11.3939630071
  H         7.7541919345       14.9622718328       11.3928408706
  C         6.9756024041        4.9349272115        0.5806418342
  H         7.7512717563        4.1594871117        0.5828925210
  C        17.7938781451       15.7304507652        0.5691686652
  H        18.5685120209       14.9540020411        0.5709028798
  C        17.7886116585        4.9212507168       11.3865056503
  H        18.5633798162        4.1449428597       11.3851340357
  C        15.6729075679        7.0402029269       11.3891633859
  H        14.8976720772        7.8161540898       11.3901430623
  C        15.6777864570       17.8473201648        0.5661447449
  H        14.9017926089       18.6224454702        0.5648581814
  C         4.8585652086        7.0509903352        0.5766106908
  H         4.0832131071        7.8267074452        0.5746551342
  C         4.8664257948       17.8599769055       11.3965807512
  H         4.0921389028       18.6367336838       11.3974923479
  C         6.9739883733        7.0470392535       11.3966014757
  H         7.7509434866        7.8211946246       11.3959201438
  C         6.9879593359       17.8595255734        0.5793079252
  H         7.7639365893       18.6345881697        0.5808208838
  C        17.7827630838        7.0397290521        0.5696154873
  H        18.5584795216        7.8151310650        0.5716472896
  C        17.7986744307       17.8518969490       11.3862515624
  H        18.5744061753       18.6272390473       11.3851237790
 Kr         5.5560814924       10.4844751061       10.4844748988
