     409
 i =      96, E =    -5186.5872611089
  N         2.8564915233        5.2043768645       16.0175085617
  C         1.5386733516        5.4768545074       16.2870876445
  N        13.6809533002        5.2147092747        5.2147105624
  C        12.3629367497        5.4836000584        5.4836018102
  N        19.5363969857       17.5782447378       16.0217121294
  C        20.8544863809       17.3040977994       16.2879646223
  N         8.7189933181       17.5755646650        5.2071593058
  C        10.0366518487       17.3044492815        5.4770452706
  N        19.5424623007        5.2078075512        6.7641627533
  C        20.8604316155        5.4775279615        6.4936602089
  N         8.7189872748        5.2071611079       17.5755652729
  C        10.0366566439        5.4770514328       17.3044434082
  N         2.8581873295       17.5744527960        6.7604880545
  C         1.5399666488       17.3033916544        6.4928097951
  N        13.6722472358       17.5760331681       17.5760338417
  C        12.3545765612       17.3055988504       17.3056003607
  N        15.8291786868        3.0546862398        5.2109512176
  C        16.0963987304        1.7363939887        5.4812070890
  N        15.8269079965       13.8697725976       16.0193470579
  C        16.0972524107       12.5524669057       16.2886902860
  N        15.8224382742       19.7358332928       17.5765852185
  C        16.0906767895       21.0536258621       17.3045726939
  N        15.8346040037        8.9177533922        6.7683691486
  C        16.1035120220       10.2347347274        6.4978897056
  N         6.5682499128       19.7329456038        5.2063478578
  C         6.3016386924       21.0510744362        5.4779581455
  N         6.5659822703        8.9130828592       16.0181241142
  C         6.2962674337       10.2302321599       16.2883284704
  N         6.5697142201        3.0491763797       17.5753226310
  C         6.3016265680        1.7314523564       17.3032998911
  N         6.5666467614       13.8671411184        6.7621997127
  C         6.2979255711       12.5498697556        6.4920035158
  N         5.0162891816       16.0176916849        3.0497680794
  C         5.2869807226       16.2860598796        1.7318937906
  N         5.0137846361        5.2044525943       13.8670106955
  C         5.2835704758        5.4745017995       12.5496210167
  N        17.3770020583       16.0195074310       19.7352305862
  C        17.1060364575       16.2878616836       21.0531525066
  N        17.3891237583        5.2119748268        8.9173565234
  C        17.1192117354        5.4817485126       10.2347022389
  N         5.0126557326        6.7618219965       19.7344025435
  C         5.2852775750        6.4935712398       21.0518812456
  N         5.0126236653       17.5758080488        8.9124560442
  C         5.2814375265       17.3054026586       10.2299311151
  N        17.3834941432        6.7672975076        3.0527008958
  C        17.1117400498        6.4977660790        1.7351788071
  N        17.3801044371       17.5768307252       13.8703839730
  C        17.1117112652       17.3060748223       12.5528441242
  N         5.0182983693        3.0502891266        6.7625324652
  C         5.2885770689        1.7325555750        6.4937313498
  N         5.0117097463       13.8670308848       17.5760341502
  C         5.2809572436       12.5495954667       17.3055809086
  N        17.3795723503       19.7362563303        6.7654886174
  C        17.1095082999       21.0542384430        6.4968390370
  N        17.3812791217        8.9159268720       17.5782667738
  C        17.1122743550       10.2331835945       17.3068450625
  N         5.0120853248       19.7334072921       16.0182378469
  C         5.2845481986       21.0510743890       16.2862200832
  N         5.0149301861        8.9126762318        5.2052178375
  C         5.2841863862       10.2301233169        5.4749240282
  N        17.3808498926        3.0518908212       16.0203343554
  C        17.1081998256        1.7342511312       16.2882397457
  N        17.3856592575       13.8715388401        5.2104635458
  C        17.1175769744       12.5540182173        5.4811784486
  N         2.8549459458       16.0169824369       17.5735847038
  C         1.5368342591       16.2855113981       17.3016659317
  N        13.6749627780       16.0174582103        6.7640740783
  C        12.3573462086       16.2871779152        6.4931896264
  N        19.5380960268       16.0230011014        5.2075032347
  C        20.8564546627       16.2901210012        5.4787540784
  N         8.7160770922       16.0188854873       16.0188834303
  C        10.0336606851       16.2890943327       16.2890955178
  N        19.5401675072        6.7640764407       17.5793117490
  C        20.8579039742        6.4948978486       17.3062326134
  N         8.7221507908        6.7650049125        6.7650024361
  C        10.0403130946        6.4965489024        6.4965508677
  N         2.8601545416        6.7600065402        5.2036030299
  C         1.5422519483        6.4915049350        5.4753902217
  N        13.6749710065        6.7640705096       16.0174624047
  C        12.3573368802        6.4931842519       16.2871836824
  N        15.8246845271        5.2090377408       19.7373932830
  C        16.0940158176        5.4802918145       21.0551468115
  N        15.8275255717       16.0207195635        8.9153947550
  C        16.0976758692       16.2894735514       10.2328081907
  N        15.8270587625       17.5776215771        3.0529885540
  C        16.0931074587       17.3050585026        1.7348630434
  N        15.8314242374        6.7664224184       13.8706946488
  C        16.1020374158        6.4974208331       12.5535825893
  N         6.5746234820        5.2078021038        3.0499623961
  C         6.3051858882        5.4784313684        1.7321193050
  N         6.5650237674       16.0186146026       13.8671224775
  C         6.2958031981       16.2885437079       12.5497597049
  N         6.5655062412       17.5760023269       19.7326253860
  C         6.2992166695       17.3035125096       21.0505556224
  N         6.5678630278        6.7632132296        8.9136702197
  C         6.2985248612        6.4924534668       10.2306612422
  N        19.5401647319       17.5793101268        6.7640762149
  C        20.8579048725       17.3062282162        6.4948957531
  N         8.7156313882       17.5752462203       17.5752435816
  C        10.0334264310       17.3051575659       17.3051582292
  N         2.8601656581        5.2036066951        6.7600034770
  C         1.5422460830        5.4753973134        6.4914979386
  N        13.6756340598        5.2092316040       17.5752100707
  C        12.3577757710        5.4779021143       17.3040824355
  N         2.8549483196       17.5735878631       16.0169804128
  C         1.5368314647       17.3016660128       16.2855118366
  N        13.6756475584       17.5752066842        5.2092347803
  C        12.3577742742       17.3040757431        5.4779085869
  N        19.5380907566        5.2075048803       16.0230046426
  C        20.8564596667        5.4787553636       16.2901249452
  N         8.7249562417        5.2088836434        5.2088814913
  C        10.0422004985        5.4804581469        5.4804600997
  N         6.5655090875       19.7326382432       17.5760031233
  C         6.2992184523       21.0505568808       17.3035188974
  N         6.5678633953        8.9136640436        6.7632098972
  C         6.2985239696       10.2306602302        6.4924467030
  N         6.5746227595        3.0499626402        5.2077983189
  C         6.3051897160        1.7321213160        5.4784296597
  N         6.5650223561       13.8671270386       16.0186163128
  C         6.2957997387       12.5497570253       16.2885450116
  N        15.8270571397        3.0529883969       17.5776215973
  C        16.0931047166        1.7348644451       17.3050604915
  N        15.8314264371       13.8706920387        6.7664226556
  C        16.1020392972       12.5535847653        6.4974223194
  N        15.8246856219       19.7373938541        5.2090368100
  C        16.0940172171       21.0551469052        5.4802925365
  N        15.8275243931        8.9153908679       16.0207198065
  C        16.0976765187       10.2328112509       16.2894752313
  N        17.3795710382        6.7654892825       19.7362566951
  C        17.1095085357        6.4968400486       21.0542377066
  N        17.3812796071       17.5782663452        8.9159239243
  C        17.1122720874       17.3068421071       10.2331852660
  N         5.0183012334        6.7625340291        3.0502855312
  C         5.2885740713        6.4937320770        1.7325560025
  N         5.0117092435       17.5760357747       13.8670329781
  C         5.2809598631       17.3055813006       12.5495924729
  N        17.3808508314       16.0203345182        3.0518882518
  C        17.1082005517       16.2882395901        1.7342518363
  N        17.3856584823        5.2104628469       13.8715382506
  C        17.1175769612        5.4811756512       12.5540177226
  N         5.0120817899       16.0182368110       19.7334118736
  C         5.2845461019       16.2862137215       21.0510632402
  N         5.0149304042        5.2052220274        8.9126705096
  C         5.2841873661        5.4749308467       10.2301310006
  N        17.3770027573       19.7352325123       16.0195063845
  C        17.1060371168       21.0531537573       16.2878605784
  N        17.3891239242        8.9173550620        5.2119745198
  C        17.1192122158       10.2347018939        5.4817501445
  N         5.0162778854        3.0497601513       16.0176948977
  C         5.2869737648        1.7319050832       16.2860551169
  N         5.0138014660       13.8670197417        5.2044416258
  C         5.2835745749       12.5496129463        5.4745021411
  N        17.3834934056        3.0526995599        6.7672977147
  C        17.1117403820        1.7351814835        6.4977670177
  N        17.3801047309       13.8703853428       17.5768299803
  C        17.1117110436       12.5528419589       17.3060741885
  N         5.0126653115       19.7343990604        6.7618234809
  C         5.2852793580       21.0518819977        6.4935679010
  N         5.0126110293        8.9124570869       17.5757974308
  C         5.2814412125       10.2299319232       17.3054001619
  N        19.5424555833        6.7641605204        5.2078098997
  C        20.8604366685        6.4936564593        5.4775319060
  N         8.7185301499        6.7625232837       16.0183684435
  C        10.0362450488        6.4925017381       16.2877627831
  N         2.8581865245        6.7604957132       17.5744527586
  C         1.5399662324        6.4928070087       17.3033909594
  N        13.6784058453        6.7706325935        6.7706332985
  C        12.3611468416        6.4996268611        6.4996282432
  N         2.8565041995       16.0175171393        5.2043780532
  C         1.5386661208       16.2870903389        5.4768597533
  N        13.6728123349       16.0196366989       16.0196378481
  C        12.3549051611       16.2894788550       16.2894806835
  N        19.5363964807       16.0217125638       17.5782438895
  C        20.8544881277       16.2879656015       17.3040966006
  N         8.7185194588       16.0183743187        6.7625156080
  C        10.0362513231       16.2877692818        6.4924952108
  N         6.5697205640       17.5753142275        3.0491696729
  C         6.3016340704       17.3033047647        1.7314533593
  N         6.5666353741        6.7622160064       13.8671384767
  C         6.2979220676        6.4920035022       12.5498719105
  N         6.5682465687        5.2063402559       19.7329480833
  C         6.3016364854        5.4779615721       21.0510738236
  N         6.5659886288       16.0181409235        8.9130707402
  C         6.2962634929       16.2883309191       10.2302374171
  N        15.8224394181       17.5765845655       19.7358329839
  C        16.0906780273       17.3045719767       21.0536234522
  N        15.8346031313        6.7683702926        8.9177535056
  C        16.1035106765        6.4978891173       10.2347352102
  N        15.8291772044        5.2109487789        3.0546845504
  C        16.0963965317        5.4812042497        1.7363931901
  N        15.8269089569       16.0193490853       13.8697742173
  C        16.0972536648       16.2886920160       12.5524661078
 Zn        14.5358613074       14.7253107228       14.7253111410
 Cl        13.3068241500       13.4911696254       13.4911691027
 Zn        14.5416171925        3.9211351973        3.9211354151
 Cl        13.2982080763        2.6936788016        2.6936799853
 Zn         3.7243006069       14.7256263214        3.9094058545
 Cl         2.4953090552       13.4903444835        2.6764551892
 Zn         3.7243031265        3.9094083178       14.7256282331
 Cl         2.4953081612        2.6764557929       13.4903448323
 Zn         7.8564219184        8.0556920831       14.7239589993
 Cl         9.0909718859        9.2873267778       13.4928075965
 Zn         7.8559593880       18.8705564909        3.9123011637
 Cl         9.0958280414       20.1020927865        2.6864236917
 Zn        18.6754397754        8.0568279806        3.9146457260
 Cl        19.9063807520        9.2919052806        2.6831516587
 Zn        18.6695502585       18.8721883040       14.7287483035
 Cl        19.9014503209       20.1004931438       13.4917239931
 Zn         7.8564197826       14.7239546238        8.0556905252
 Cl         9.0909716735       13.4928076082        9.2873262122
 Zn         7.8559611365        3.9123024277       18.8705630896
 Cl         9.0958260311        2.6864269892       20.1020911163
 Zn        18.6695514032       14.7287482172       18.8721884963
 Cl        19.9014501048       13.4917242015       20.1004919125
 Zn        18.6754398714        3.9146487879        8.0568253190
 Cl        19.9063794526        2.6831522021        9.2919065498
 Zn        14.5442220856        8.0621956497        8.0621950923
 Cl        13.3234272205        9.3006253548        9.3006252771
 Zn        14.5351185155       18.8712063023       18.8712066054
 Cl        13.2947820040       20.0997000528       20.0997000211
 Zn         3.7230463839        8.0527822276       18.8705418249
 Cl         2.4856429024        9.2892918944       20.0939321196
 Zn         3.7230482379       18.8705351034        8.0527772873
 Cl         2.4856437419       20.0939305711        9.2892893517
 Zn        14.5387645119       14.7244128921        8.0577747211
 Cl        13.3164344887       13.4848316157        9.2933024165
 Zn        14.5386680414        3.9158319987       18.8715018656
 Cl        13.2969192125        2.6819766929       20.0934403544
 Zn         3.7220309117       14.7261070155       18.8705302045
 Cl         2.4886792139       13.4901887857       20.0986017331
 Zn         3.7258043079        3.9099383043        8.0532010055
 Cl         2.4930827396        2.6810040247        9.2887376256
 Zn         7.8582068726        8.0571623112        8.0571688584
 Cl         9.0904743604        9.2897946459        9.2897944248
 Zn         7.8532269974       18.8702311782       18.8702225910
 Cl         9.0936364795       20.0986345426       20.0986342051
 Zn        18.6717375881        8.0557211142       18.8729371185
 Cl        19.8995372882        9.2926452183       20.1055359652
 Zn        18.6717383508       18.8729404893        8.0557236371
 Cl        19.8995394813       20.1055361933        9.2926454269
 Zn        14.5387638136        8.0577781456       14.7244089112
 Cl        13.3164328048        9.2933031244       13.4848309803
 Zn        14.5386720393       18.8715067810        3.9158265770
 Cl        13.2969192477       20.0934403245        2.6819757273
 Zn         3.7258035326        8.0531958485        3.9099434577
 Cl         2.4930828317        9.2887375369        2.6810049928
 Zn         3.7220249717       18.8705332857       14.7261027945
 Cl         2.4886781802       20.0986037869       13.4901851162
 Zn         7.8546897576       14.7243351775       14.7243346662
 Cl         9.0891283288       13.4929537766       13.4929535532
 Zn         7.8624701975        3.9138257463        3.9138254163
 Cl         9.1008198572        2.6843568634        2.6843576772
 Zn        18.6723370789       14.7292879948        3.9136927604
 Cl        19.9074028531       13.4931730790        2.6874894201
 Zn        18.6723362985        3.9136937192       14.7292878975
 Cl        19.9074014280        2.6874903065       13.4931747691
 Zn         5.7889504853        5.9853136699       16.7987819215
 Zn        16.6046281782       16.8035306343       16.8035298247
 Zn        16.6102295708        5.9927900780        5.9927909363
 Zn         5.7889421113       16.7987786278        5.9853181591
 Zn         5.7915211480        5.9862046172        5.9862079296
 Zn        16.6068500824       16.8044249083        5.9899848986
 Zn         5.7872281726       16.7989107324       16.7989084538
 Zn        16.6068508387        5.9899839585       16.8044269898
  N         3.6035963144        5.9811678321       16.7965910197
  N        14.4261244692        5.9931109323        5.9931137070
  N        18.7901167675       16.8022426608       16.8022427216
  N         7.9724805946       16.7974780412        5.9849778141
  N        18.7962072830        5.9862523482        5.9862498950
  N         7.9724763875        5.9849732487       16.7974814320
  N         3.6035897168       16.7965829449        5.9811731875
  N        14.4188534890       16.7980088125       16.7980097121
  N        16.6075605785        3.8005372431        5.9888711978
  N        16.6029260529       14.6168361306       16.7985025752
  N        16.6006684297       18.9889800064       16.7991891850
  N        16.6120008450        8.1711133113        5.9905388202
  N         5.7889358350       18.9869431950        5.9831098520
  N         5.7896362862        8.1662788085       16.7970917864
  N         5.7921345669        3.7962232040       16.7975045379
  N         5.7900929841       14.6137412103        5.9833354984
  N         5.7921169307       16.7975163501        3.7962171308
  N         5.7901368085        5.9832973300       14.6137434292
  N        16.6006685046       16.7991889749       18.9889799428
  N        16.6120015133        5.9905378407        8.1711146263
  N         5.7889497095        5.9831232786       18.9869362159
  N         5.7896032943       16.7970566569        8.1662831986
  N        16.6075616413        5.9888694372        3.8005392324
  N        16.6029247549       16.7985021305       14.6168356321
  N         5.7960629691        3.7968800012        5.9847581286
  N         5.7884487480       14.6137292669       16.7975049635
  N        16.6024755502       18.9902347222        5.9865997718
  N        16.6040029437        8.1692907336       16.8001782626
  N         5.7871472654       18.9863340362       16.7984487102
  N         5.7916485616        8.1666625673        5.9844098366
  N        16.6057865966        3.7992216216       16.8004200344
  N        16.6078239099       14.6179377584        5.9880977748
  N         3.6011556005       16.7963793915       16.7963811296
  N        14.4216555249       16.7968341322        5.9872856840
  N        18.7928544141       16.8026939545        5.9850980477
  N         7.9695911582       16.7970455520       16.7970445763
  N        18.7928583036        5.9850945337       16.8026950691
  N         7.9771926284        5.9862216120        5.9862294515
  N         3.6065043347        5.9809260886        5.9809325805
  N        14.4216511975        5.9872899764       16.7968294614
  N        16.6024748149        5.9865987225       18.9902367070
  N        16.6040021535       16.8001765515        8.1692916858
  N        16.6057886774       16.8004181174        3.7992214715
  N        16.6078231981        5.9880965241       14.6179402804
  N         5.7960604513        5.9847565531        3.7968740249
  N         5.7884371507       16.7974951995       14.6137331423
  N         5.7871497143       16.7984578078       18.9863289656
  N         5.7916683351        5.9843828673        8.1666647530
  C        11.1944283463       15.7389503662       15.7389520936
  H        11.1943363083       14.9633652694       14.9633677101
  C        11.2040124429        4.9317120208        4.9317126952
  H        11.2068158547        4.1561846010        4.1561875266
  C         0.3764455713       15.7378096214        4.9284340474
  H         0.3742671093       14.9617740480        4.1533703939
  C         0.3764458930        4.9284353063       15.7378110407
  H         0.3742686376        4.1533702586       14.9617782463
  C        11.1964917558        7.0426798471       15.7365746141
  H        11.1955783538        7.8178660721       14.9606053512
  C        11.1975001257       17.8546267019        4.9273771019
  H        11.1979486375       18.6305589499        4.1522610517
  C         0.3813328784        7.0428948261        4.9265281787
  H         0.3814280708        7.8185237307        4.1510803464
  C         0.3756538186       17.8517383852       15.7356183724
  H         0.3756556293       18.6264665429       14.9592674280
  C        11.1965006038       15.7365753836        7.0426782344
  H        11.1955809034       14.9606064866        7.8178648943
  C        11.1975100069        4.9273789836       17.8546256076
  H        11.1979438697        4.1522628186       18.6305572353
  C         0.3756562914       15.7356199402       17.8517363855
  H         0.3756569525       14.9592694512       18.6264640980
  C         0.3813237896        4.9265265605        7.0428961183
  H         0.3814281268        4.1510787041        7.8185247583
  C        11.1993514889        7.0485509178        7.0485512729
  H        11.1968402186        7.8241274761        7.8241298148
  C        11.1938111823       17.8555670427       17.8555678731
  H        11.1932984124       18.6310900062       18.6310911828
  C         0.3800418524        7.0445269494       17.8541610685
  H         0.3823911820        7.8205113575       18.6292248043
  C         0.3800519597       17.8541602588        7.0445255320
  H         0.3823907589       18.6292226194        7.8205122558
  C        15.5478302896       11.3923830349       15.7370665585
  H        14.7735720940       11.3918240361       14.9600535682
  C        15.5447755599        0.5765562134        4.9304335769
  H        14.7694416127        0.5781225998        4.1546714528
  C         4.7339310615       11.3896283703        4.9232099085
  H         3.9593389423       11.3891050641        4.1467170741
  C         4.7367318861        0.5720045578       15.7343603031
  H         3.9623061323        0.5732092156       14.9576536647
  C        15.5518019749       11.3939119898        7.0485087207
  H        14.7762054902       11.3933033022        7.8240942648
  C        15.5411846663        0.5747112282       17.8547374538
  H        14.7657045249        0.5758140119       18.6303634944
  C         4.7307851481       11.3896204035       17.8564086444
  H         3.9553895848       11.3892548164       18.6321053389
  C         4.7365892377        0.5729142095        7.0441453694
  H         3.9605805258        0.5745211882        7.8192500680
  C         6.8463292631       11.3901600290       15.7371606401
  H         7.6215813637       11.3903579580       14.9612007627
  C         6.8548253836        0.5709400786        4.9288157432
  H         7.6315432992        0.5696752663        4.1544161895
  C        17.6690479503       11.3946219564        4.9305899293
  H        18.4441104952       11.3950899807        4.1546018267
  C        17.6565976701        0.5733430811       15.7368512410
  H        18.4320339193        0.5726196420       14.9611655368
  C         6.8482637544       11.3905323037        7.0438893172
  H         7.6227656918       11.3908006565        7.8206088827
  C         6.8509936370        0.5705403919       17.8536601274
  H         7.6262712876        0.5696471606       18.6294974339
  C        17.6621735006       11.3933203074       17.8574991546
  H        18.4368264883       11.3937927221       18.6338964144
  C        17.6603456440        0.5740102479        7.0482699228
  H        18.4354400219        0.5727838432        7.8242915657
  C        15.5478309418       15.7370671607       11.3923808427
  H        14.7735730230       14.9600546805       11.3918237974
  C        15.5447754379        4.9304342182        0.5765561200
  H        14.7694419475        4.1546719063        0.5781225197
  C         4.7367381459       15.7343566572        0.5719928670
  H         3.9623087229       14.9576530971        0.5732036120
  C         4.7339179645        4.9232217471       11.3896321054
  H         3.9593389397        4.1467164610       11.3891070697
  C         6.8463369252       15.7371676997       11.3901596066
  H         7.6215807805       14.9611985303       11.3903596609
  C         6.8548232142        4.9288134880        0.5709417333
  H         7.6315424767        4.1544158961        0.5696706991
  C        17.6565988287       15.7368509079        0.5733421197
  H        18.4320348684       14.9611652275        0.5726181134
  C        17.6690452920        4.9305901158       11.3946227163
  H        18.4441075271        4.1546019665       11.3950904637
  C        15.5517997292        7.0485083885       11.3939117171
  H        14.7762027067        7.8240941609       11.3933033657
  C        15.5411850007       17.8547381395        0.5747090387
  H        14.7657045118       18.6303641313        0.5758137758
  C         4.7365867813        7.0441436009        0.5729163166
  H         3.9605802392        7.8192496940        0.5745200377
  C         4.7307934308       17.8564158209       11.3896114401
  H         3.9553885307       18.6321044085       11.3892541174
  C         6.8482505005        7.0439012144       11.3905244255
  H         7.6227648353        7.8206078095       11.3908023646
  C         6.8509999080       17.8536558451        0.5705482320
  H         7.6262744907       18.6294964219        0.5696419499
  C        17.6603447106        7.0482697626        0.5740079593
  H        18.4354393664        7.8242910615        0.5727838120
  C        17.6621746674       17.8575003096       11.3933231820
  H        18.4368279257       18.6338978021       11.3937927631
 Kr        17.1335226929       10.4608442889       10.4608447507
