     409
 i =      96, E =    -5186.5841654378
  N         2.8371327552        5.2047745796       16.0170498168
  C         1.5191197076        5.4763614437       16.2855913165
  N        13.6542560387        5.2065183719        5.2065216952
  C        12.3366487981        5.4763035474        5.4762605075
  N        19.5210768614       17.5748143221       16.0185133647
  C        20.8389583868       17.3024040273       16.2863299750
  N         8.6994977090       17.5757077196        5.2070845487
  C        10.0169473933       17.3040626985        5.4756530576
  N        19.5188814464        5.2053109782        6.7615063384
  C        20.8366630772        5.4766677013        6.4927319242
  N         8.6995071432        5.2070604548       17.5757285082
  C        10.0169665859        5.4756640271       17.3040812313
  N         2.8370073409       17.5730262609        6.7608737405
  C         1.5192339613       17.3016636729        6.4923307433
  N        13.6560456001       17.5737674100       17.5737674732
  C        12.3382823022       17.3039768038       17.3039732006
  N        15.8044282078        3.0493163791        5.2051927583
  C        16.0727468976        1.7313120562        5.4762485035
  N        15.8079566570       13.8667247873       16.0164948760
  C        16.0782200127       12.5493288986       16.2859826128
  N        15.8064401862       19.7313500185       17.5727335059
  C        16.0743504687       21.0493599967       17.3004718757
  N        15.8077995808        8.9122399745        6.7630849917
  C        16.0790434189       10.2294618665        6.4945468591
  N         6.5472231135       19.7328884758        5.2076016396
  C         6.2781964607       21.0507099558        5.4783717884
  N         6.5476709560        8.9128102103       16.0185615646
  C         6.2778562643       10.2300726500       16.2885758720
  N         6.5503669589        3.0499019311       17.5765688455
  C         6.2822040230        1.7320260840       17.3048109977
  N         6.5477180689       13.8670346946        6.7618286344
  C         6.2774709540       12.5497940124        6.4920711284
  N         4.9957710607       16.0194113146        3.0499353380
  C         5.2670047776       16.2880373530        1.7320912352
  N         4.9934326323        5.2047651699       13.8677263352
  C         5.2623030237        5.4753185884       12.5501400879
  N        17.3620061015       16.0160871708       19.7314241120
  C        17.0901043276       16.2841276226       21.0493106220
  N        17.3632298537        5.2065340090        8.9120045332
  C        17.0945145395        5.4779910270       10.2294476258
  N         4.9901550367        6.7624676559       19.7330134835
  C         5.2614671184        6.4936866028       21.0508248748
  N         4.9921462791       17.5750000399        8.9126390837
  C         5.2621524766       17.3048806353       10.2300747770
  N        17.3606260731        6.7609512782        3.0487142454
  C        17.0887945527        6.4921820766        1.7309138284
  N        17.3642502107       17.5720539790       13.8667615211
  C        17.0943350146       17.3018679621       12.5492911469
  N         4.9913378972        3.0499740145        6.7621175231
  C         5.2621622140        1.7321659281        6.4934480196
  N         4.9942936193       13.8678193486       17.5758412509
  C         5.2631298392       12.5502057778       17.3052310336
  N        17.3599390456       19.7316342522        6.7603108405
  C        17.0883305662       21.0495147880        6.4918566496
  N        17.3625908312        8.9116675831       17.5737658694
  C        17.0934865772       10.2291509277       17.3027268757
  N         4.9948526858       19.7329321085       16.0191953032
  C         5.2663780282       21.0508114150       16.2878510239
  N         4.9915507754        8.9126478912        5.2056614595
  C         5.2614851258       10.2301356553        5.4756530633
  N        17.3623775933        3.0487997669       16.0159343637
  C        17.0904243644        1.7309343177       16.2840432659
  N        17.3641524091       13.8668505765        5.2078948104
  C        17.0949055850       12.5494131815        5.4785885152
  N         2.8386006793       16.0178701372       17.5740100050
  C         1.5206410615       16.2858146664       17.3018589764
  N        13.6544613798       16.0160189011        6.7597239758
  C        12.3370690439       16.2860725892        6.4899311067
  N        19.5196296130       16.0184448015        5.2054218996
  C        20.8375319928       16.2865908782        5.4768146641
  N         8.7001616637       16.0185290381       16.0185291519
  C        10.0175940494       16.2883704575       16.2883654905
  N        19.5201203790        6.7610212339       17.5752644742
  C        20.8378874322        6.4925770045       17.3029568328
  N         8.6990330964        6.7616764802        6.7616838350
  C        10.0163353191        6.4918765650        6.4918257617
  N         2.8357136571        6.7618255864        5.2059582356
  C         1.5178744658        6.4928349201        5.4768681576
  N        13.6544694759        6.7597232562       16.0160197140
  C        12.3370653007        6.4899425254       16.2860870600
  N        15.8038141376        5.2042260587       19.7315686485
  C        16.0722976279        5.4757820900       21.0495711012
  N        15.8062294839       16.0180130567        8.9119076544
  C        16.0773944672       16.2867881123       10.2291952907
  N        15.8067270466       17.5723270492        3.0489744017
  C        16.0746479765       17.3002615428        1.7310058206
  N        15.8087073530        6.7640996316       13.8666859681
  C        16.0793805391        6.4950367460       12.5493564570
  N         6.5478029557        5.2068770053        3.0497618897
  C         6.2786920733        5.4779990033        1.7319210416
  N         6.5489151367       16.0190311665       13.8671954554
  C         6.2785866761       16.2887498549       12.5499355618
  N         6.5499429275       17.5760612619       19.7328926810
  C         6.2817992590       17.3044814104       21.0507180717
  N         6.5467255270        6.7622426681        8.9130129247
  C         6.2768223135        6.4922789054       10.2302168788
  N        19.5201205519       17.5752675157        6.7610300277
  C        20.8378824977       17.3029682456        6.4925655124
  N         8.7004810691       17.5747315575       17.5747329859
  C        10.0178664829       17.3043921256       17.3043875079
  N         2.8357001632        5.2059742948        6.7618080268
  C         1.5179063118        5.4768529143        6.4928497686
  N        13.6549164001        5.2044761763       17.5723314836
  C        12.3372508110        5.4743532420       17.3024483425
  N         2.8386043222       17.5740114223       16.0178685377
  C         1.5206346202       17.3018606337       16.2858132222
  N        13.6549084862       17.5723405293        5.2044674193
  C        12.3372441045       17.3024321297        5.4743438727
  N        19.5196275696        5.2054224080       16.0184510043
  C        20.8375413125        5.4768243237       16.2865776127
  N         8.6989041559        5.2056837195        5.2056948304
  C        10.0164046965        5.4758700544        5.4758203511
  N         6.5499388061       19.7328853961       17.5760563041
  C         6.2817939196       21.0507140249       17.3044887553
  N         6.5467079985        8.9129940154        6.7622452511
  C         6.2768976669       10.2302274156        6.4922369284
  N         6.5478187539        3.0497460174        5.2068671905
  C         6.2786655969        1.7319044755        5.4779893378
  N         6.5489169996       13.8671962646       16.0190354796
  C         6.2785678896       12.5499287963       16.2887300450
  N        15.8067306878        3.0489715907       17.5723248828
  C        16.0746479464        1.7310075573       17.3002603750
  N        15.8087062405       13.8666813108        6.7641030662
  C        16.0793711957       12.5493571819        6.4950303003
  N        15.8038111636       19.7315664526        5.2042239892
  C        16.0723040070       21.0495707855        5.4757779798
  N        15.8062303893        8.9119024223       16.0180148118
  C        16.0773947242       10.2291965449       16.2867872779
  N        17.3599340897        6.7603073065       19.7316344976
  C        17.0883228552        6.4918598314       21.0495141327
  N        17.3625962731       17.5737700248        8.9116702396
  C        17.0934877374       17.3027288008       10.2291573468
  N         4.9913254070        6.7621271949        3.0499976447
  C         5.2621852212        6.4934620450        1.7321470315
  N         4.9942861749       17.5758424482       13.8678236997
  C         5.2631505551       17.3052486847       12.5502072612
  N        17.3623797628       16.0159327142        3.0488003235
  C        17.0904258467       16.2840435092        1.7309372284
  N        17.3641491395        5.2078958947       13.8668528296
  C        17.0949140613        5.4785955369       12.5494144033
  N         4.9948536306       16.0191987370       19.7329396333
  C         5.2663858933       16.2878461341       21.0508060991
  N         4.9915723990        5.2056617431        8.9126792578
  C         5.2614254977        5.4757109551       10.2300923336
  N        17.3620082095       19.7314228418       16.0160842678
  C        17.0901033082       21.0493120739       16.2841267347
  N        17.3632240852        8.9120019299        5.2065415859
  C        17.0945043331       10.2294361708        5.4779850504
  N         4.9957702709        3.0499272056       16.0194137200
  C         5.2669930359        1.7320815118       16.2880497596
  N         4.9934358563       13.8677261561        5.2047904118
  C         5.2623566500       12.5501043501        5.4752486926
  N        17.3606319292        3.0487119168        6.7609581274
  C        17.0888024911        1.7309011014        6.4921799937
  N        17.3642482191       13.8667594755       17.5720520115
  C        17.0943347288       12.5492947478       17.3018666242
  N         4.9901488535       19.7330032232        6.7624754274
  C         5.2614528129       21.0508132581        6.4936746406
  N         4.9921473879        8.9126312435       17.5750125389
  C         5.2621322022       10.2300673039       17.3048544621
  N        19.5188832964        6.7614895112        5.2053278030
  C        20.8366556185        6.4927301194        5.4766694497
  N         8.6996093595        6.7619096466       16.0184238064
  C        10.0169334908        6.4909995894       16.2873968711
  N         2.8370117315        6.7608719607       17.5730292123
  C         1.5192410195        6.4923446181       17.3016468500
  N        13.6536907304        6.7622554497        6.7622589435
  C        12.3363297112        6.4922594174        6.4922164407
  N         2.8371287195       16.0170565612        5.2047864298
  C         1.5191204094       16.2856090056        5.4763484572
  N        13.6553329575       16.0179521608       16.0179529447
  C        12.3379299188       16.2879938359       16.2879907136
  N        19.5210768751       16.0185176410       17.5748092521
  C        20.8389513200       16.2863306665       17.3024027416
  N         8.6995996452       16.0184139660        6.7619206369
  C        10.0169400582       16.2873800633        6.4909860344
  N         6.5503534983       17.5765539532        3.0499136883
  C         6.2822118558       17.3047963324        1.7320428574
  N         6.5477198160        6.7618088409       13.8670296529
  C         6.2774027071        6.4921256717       12.5498475295
  N         6.5472448865        5.2075790733       19.7329039582
  C         6.2782129210        5.4783818531       21.0507353597
  N         6.5476628289       16.0185547220        8.9128106836
  C         6.2778777643       16.2886009175       10.2300900381
  N        15.8064401942       17.5727346387       19.7313502079
  C        16.0743511675       17.3004732549       21.0493644087
  N        15.8078012263        6.7630807264        8.9122455133
  C        16.0790531355        6.4945536386       10.2294641864
  N        15.8044240651        5.2051870611        3.0493216177
  C        16.0727396950        5.4762519521        1.7313147007
  N        15.8079591403       16.0164973200       13.8667259407
  C        16.0782198509       16.2859834054       12.5493324182
 Zn        14.5117711357       14.7237852727       14.7237845264
 Cl        13.2806368731       13.4910697345       13.4910688330
 Zn        14.5115116226        3.9118146166        3.9118206236
 Cl        13.2722837206        2.6830157826        2.6830151244
 Zn         3.7015672984       14.7264034894        3.9092747603
 Cl         2.4729320103       13.4909544959        2.6765614375
 Zn         3.7015750474        3.9092674138       14.7263988126
 Cl         2.4729284189        2.6765666251       13.4909607741
 Zn         7.8408756956        8.0552985497       14.7238889275
 Cl         9.0733741760        9.2871185502       13.4915200436
 Zn         7.8397625090       18.8716282075        3.9139006492
 Cl         9.0775056761       20.1038456269        2.6870422150
 Zn        18.6556797728        8.0526555956        3.9100679756
 Cl        19.8843874270        9.2887828412        2.6783348278
 Zn        18.6571234726       18.8683501125       14.7253080894
 Cl        19.8873490505       20.0956862211       13.4861318661
 Zn         7.8408713268       14.7238884129        8.0553077407
 Cl         9.0733736234       13.4915249090        9.2871096725
 Zn         7.8397724922        3.9138849814       18.8716424814
 Cl         9.0775059307        2.6870424751       20.1038481926
 Zn        18.6571231899       14.7253085659       18.8683505522
 Cl        19.8873513821       13.4861300697       20.0956874350
 Zn        18.6556860938        3.9100661624        8.0526574515
 Cl        19.8843832380        2.6783366900        9.2887826621
 Zn        14.5114392674        8.0555005727        8.0555033536
 Cl        13.2840015181        9.2900499265        9.2900474147
 Zn        14.5151901984       18.8682895514       18.8682906141
 Cl        13.2789996175       20.0985194328       20.0985193039
 Zn         3.6966058301        8.0533719091       18.8687143535
 Cl         2.4637307527        9.2918503696       20.0940137833
 Zn         3.6966091753       18.8687110183        8.0533729365
 Cl         2.4637282203       20.0940154458        9.2918518232
 Zn        14.5112677256       14.7235086670        8.0548670626
 Cl        13.2815461191       13.4901265206        9.2883105914
 Zn        14.5130972023        3.9096292686       18.8669068682
 Cl        13.2753108833        2.6753864177       20.0915235642
 Zn         3.7014908717       14.7268246194       18.8704258963
 Cl         2.4704373371       13.4905378771       20.0998966327
 Zn         3.6969110579        3.9113707990        8.0537121762
 Cl         2.4663151710        2.6828363689        9.2913711047
 Zn         7.8406379325        8.0553831723        8.0553855077
 Cl         9.0736323341        9.2872600484        9.2872518281
 Zn         7.8410360214       18.8699066745       18.8699056771
 Cl         9.0814164707       20.0981110575       20.0981085658
 Zn        18.6554527892        8.0520230356       18.8700056279
 Cl        19.8825181011        9.2889686200       20.1025833396
 Zn        18.6554528132       18.8700086958        8.0520281166
 Cl        19.8825190415       20.1025826718        9.2889674182
 Zn        14.5112652090        8.0548638446       14.7235121109
 Cl        13.2815480748        9.2883112190       13.4901278547
 Zn        14.5130949507       18.8669079345        3.9096273074
 Cl        13.2753152968       20.0915210733        2.6753865217
 Zn         3.6969136382        8.0537152921        3.9113710277
 Cl         2.4663385415        9.2913536569        2.6828544816
 Zn         3.7014891591       18.8704290817       14.7268289134
 Cl         2.4704398682       20.0998944726       13.4905389852
 Zn         7.8412613884       14.7241354063       14.7241458939
 Cl         9.0731837244       13.4917577211       13.4917566089
 Zn         7.8386105929        3.9112659529        3.9112594274
 Cl         9.0738100485        2.6805500095        2.6805445981
 Zn        18.6569893474       14.7249675951        3.9118680441
 Cl        19.8885673511       13.4866075159        2.6850280777
 Zn        18.6569911694        3.9118712115       14.7249730778
 Cl        19.8885674294        2.6850289229       13.4866081567
 Zn         5.7737107266        5.9863807986       16.7992581635
 Zn        16.5907323844       16.7965391960       16.7965393167
 Zn        16.5880992886        5.9856760055        5.9856964572
 Zn         5.7736845777       16.7992444637        5.9864229961
 Zn         5.7725834785        5.9861349331        5.9861904154
 Zn        16.5889834244       16.7968094762        5.9850781256
 Zn         5.7751726175       16.7992840469       16.7992952354
 Zn        16.5889825586        5.9850682075       16.7968111696
  N         3.5837249992        5.9820613762       16.7960362824
  N        14.4007003997        5.9844034738        5.9844303129
  N        18.7747035940       16.7979758581       16.7979814227
  N         7.9532478293       16.7978617416        5.9852040514
  N        18.7724440969        5.9827702623        5.9827544823
  N         7.9532461471        5.9851967363       16.7978485469
  N         3.5837052226       16.7960242658        5.9820722873
  N        14.4023783828       16.7957159523       16.7957175871
  N        16.5834967322        3.7957283486        5.9823318386
  N        16.5859924096       14.6132191150       16.7945038899
  N        16.5854748541       18.9847916969       16.7956080799
  N        16.5847534111        8.1657790772        5.9841829861
  N         5.7681472296       18.9863503589        5.9844483275
  N         5.7699020545        8.1663809756       16.7968174114
  N         5.7721458511        3.7966247755       16.7988733657
  N         5.7710267171       14.6140295658        5.9831467578
  N         5.7721375267       16.7988729320        3.7966240147
  N         5.7710920600        5.9831110733       14.6140195908
  N        16.5854779252       16.7956057816       18.9847946960
  N        16.5847447818        5.9841797111        8.1657804497
  N         5.7681364380        5.9844420724       18.9863409319
  N         5.7698706212       16.7968048041        8.1663983825
  N        16.5835028629        5.9823310585        3.7957332634
  N        16.5859892485       16.7945010028       14.6132191299
  N         5.7690025157        3.7965323433        5.9839127111
  N         5.7720772435       14.6140986830       16.7976699525
  N        16.5828571441       18.9850065672        5.9814389892
  N        16.5837917727        8.1654498532       16.7964318687
  N         5.7715218255       18.9863203408       16.7985404649
  N         5.7691692886        8.1664567434        5.9839976434
  N        16.5857646184        3.7955611341       16.7953115898
  N        16.5860467490       14.6132824263        5.9855718386
  N         3.5851955341       16.7972132362       16.7972227466
  N        14.4013738070       16.7941548219        5.9822061392
  N        18.7734482864       16.7978750750        5.9823084248
  N         7.9540647960       16.7967926298       16.7967952718
  N        18.7734619609        5.9823029656       16.7978871952
  N         7.9526711366        5.9836905630        5.9837285750
  N         3.5823990158        5.9833271022        5.9833729713
  N        14.4013658974        5.9821919539       16.7941560026
  N        16.5828575032        5.9814353892       18.9850149533
  N        16.5837885269       16.7964272074        8.1654495432
  N        16.5857677498       16.7953073699        3.7955666650
  N        16.5860435474        5.9855641830       14.6132846489
  N         5.7690100449        5.9838814259        3.7965469974
  N         5.7720716057       16.7976487562       14.6141185908
  N         5.7715132299       16.7985410805       18.9863217969
  N         5.7691905213        5.9839247735        8.1665004688
  C        11.1776009548       15.7376079917       15.7376035009
  H        11.1771607859       14.9620012593       14.9619994227
  C        11.1766989879        4.9255983032        4.9255419609
  H        11.1770851470        4.1500436234        4.1500170371
  C         0.3580432582       15.7351311194        4.9270958417
  H         0.3572917929       14.9590067492        4.1521128692
  C         0.3580374230        4.9271127311       15.7351154478
  H         0.3572927350        4.1521191554       14.9590010001
  C        11.1769547126        7.0406711432       15.7357197672
  H        11.1766459898        7.8160087090       14.9598573129
  C        11.1771810958       17.8538036445        4.9246164775
  H        11.1771841143       18.6296525871        4.1493934571
  C         0.3573224716        7.0434719996        4.9268878426
  H         0.3574697452        7.8192304091        4.1515475657
  C         0.3598208072       17.8513664895       15.7349771578
  H         0.3598180899       18.6261788889       14.9586937271
  C        11.1769457530       15.7357009410        7.0406558527
  H        11.1766424483       14.9598476632        7.8160015007
  C        11.1771994433        4.9246300020       17.8538230142
  H        11.1771911034        4.1493987862       18.6296626835
  C         0.3598193600       15.7349749177       17.8513676487
  H         0.3598175543       14.9586909657       18.6261800118
  C         0.3573255295        4.9268811816        7.0434787814
  H         0.3574578883        4.1515394832        7.8192387770
  C        11.1761541887        7.0427107986        7.0426532874
  H        11.1756088209        7.8182900014        7.8182623028
  C        11.1782946131       17.8546054686       17.8546004532
  H        11.1783218754       18.6301334813       18.6301305614
  C         0.3589126497        7.0432523499       17.8519411278
  H         0.3598128412        7.8191821342       18.6270994926
  C         0.3589158940       17.8519583220        7.0432371716
  H         0.3598088844       18.6271059153        7.8191772302
  C        15.5274907733       11.3892726586       15.7354156659
  H        14.7521193076       11.3891955715       14.9595617475
  C        15.5218429360        0.5706550717        4.9263003889
  H        14.7461504651        0.5713032257        4.1508954132
  C         4.7116855626       11.3902173984        4.9245632124
  H         3.9366417941       11.3902749557        4.1485215238
  C         4.7174361737        0.5716363638       15.7366544329
  H         3.9428463652        0.5721826738       14.9601189123
  C        15.5291739681       11.3893753601        7.0461761370
  H        14.7537208367       11.3891925697        7.8219442726
  C        15.5237637844        0.5703090937       17.8499788395
  H        14.7480711683        0.5708053310       18.6253950316
  C         4.7121809581       11.3902873493       17.8556675646
  H         3.9367644604       11.3903902588       18.6313268845
  C         4.7116771125        0.5717147408        7.0440144766
  H         3.9361645356        0.5722882804        7.8195987132
  C         6.8287189441       11.3898794125       15.7378234451
  H         7.6043222691       11.3896370017       14.9622225664
  C         6.8296378650        0.5711500515        4.9288245352
  H         7.6063223483        0.5708000668        4.1543992062
  C        17.6451287212       11.3894573644        4.9276526129
  H        18.4200491422       11.3895527497        4.1515167920
  C        17.6396555506        0.5700459699       15.7330934943
  H        18.4148299231        0.5699407749       14.9571743003
  C         6.8273886322       11.3899075939        7.0433474627
  H         7.6023642014       11.3897394599        7.8195742779
  C         6.8326142949        0.5712285486       17.8545761941
  H         7.6083053898        0.5709155607       18.6299719930
  C        17.6446581275       11.3892162696       17.8525182117
  H        18.4202523684       11.3892378055       18.6279781595
  C        17.6381806646        0.5700450336        7.0427849448
  H        18.4133515578        0.5697913951        7.8187133882
  C        15.5274897007       15.7354156105       11.3892759397
  H        14.7521187297       14.9595608769       11.3891969853
  C        15.5218348886        4.9263053140        0.5706558644
  H        14.7461458306        4.1508967448        0.5713054370
  C         4.7174450747       15.7366412689        0.5716461408
  H         3.9428496555       14.9601115336        0.5721853177
  C         4.7115989601        4.9246249494       11.3902238973
  H         3.9365946905        4.1485479745       11.3902927699
  C         6.8287439174       15.7378511273       11.3898748733
  H         7.6043328344       14.9622370410       11.3896362061
  C         6.8296574220        4.9288425464        0.5711771550
  H         7.6063328363        4.1544059559        0.5708102001
  C        17.6396578109       15.7330934528        0.5700458842
  H        18.4148327271       14.9571742746        0.5699415085
  C        17.6451383191        4.9276623434       11.3894621212
  H        18.4200527395        4.1515212553       11.3895555784
  C        15.5291852247        7.0461843329       11.3893786776
  H        14.7537263069        7.8219463397       11.3891947994
  C        15.5237656675       17.8499790726        0.5703097093
  H        14.7480732799       18.6253954576        0.5708068166
  C         4.7117023907        7.0440270316        0.5717309206
  H         3.9361797651        7.8196008182        0.5723012715
  C         4.7122079978       17.8556929861       11.3902846510
  H         3.9367776986       18.6313386469       11.3903971777
  C         6.8273206652        7.0434277173       11.3899179772
  H         7.6023305881        7.8196137728       11.3897413983
  C         6.8326234354       17.8545650894        0.5712442323
  H         7.6083091302       18.6299672025        0.5709240546
  C        17.6381740529        7.0427907768        0.5700472995
  H        18.4133488394        7.8187159393        0.5697942580
  C        17.6446569270       17.8525180426       11.3892191300
  H        18.4202517426       18.6279771638       11.3892394245
 Kr        18.9899279380       10.6600968891       10.6600972152
