     409
 i =      96, E =    -5186.5831112828
  N         3.0245418438        5.2060238093       16.0186954787
  C         1.7063470555        5.4774201025       16.2866324600
  N        13.8399604391        5.2034880559        5.2034892805
  C        12.5223071770        5.4739774765        5.4739795644
  N        19.7079472758       17.5726753578       16.0161387392
  C        21.0260947421       17.3016060690       16.2854238609
  N         8.8861755280       17.5753202578        5.2057734487
  C        10.2040493362       17.3041430786        5.4745913684
  N        19.7033192093        5.2037584305        6.7602460978
  C        21.0213743320        5.4765849666        6.4927429792
  N         8.8861744991        5.2057742797       17.5753190870
  C        10.2040477904        5.4745917800       17.3041419707
  N         3.0233490962       17.5752348037        6.7624484182
  C         1.7055214830       17.3028418693        6.4934073340
  N        13.8458783065       17.5732852846       17.5732850532
  C        12.5279972702       17.3035382291       17.3035379117
  N        15.9907669482        3.0465994773        5.2034297327
  C        16.2589473187        1.7288406464        5.4750323689
  N        15.9965471996       13.8648226386       16.0154971994
  C        16.2657471600       12.5474985517       16.2855700516
  N        15.9964463488       19.7299726315       17.5725384971
  C        16.2633962128       21.0478514792       17.3002063251
  N        15.9925268519        8.9108484977        6.7597324569
  C        16.2618328254       10.2280728681        6.4893333857
  N         6.7348797734       19.7335358138        5.2070801027
  C         6.4661576331       21.0512798614        5.4783130381
  N         6.7358966325        8.9132492529       16.0184449882
  C         6.4666295005       10.2306165782       16.2882907000
  N         6.7352434035        3.0502423431       17.5756264225
  C         6.4687502882        1.7322395534       17.3033288727
  N         6.7335936671       13.8674309393        6.7634899074
  C         6.4633700120       12.5501949725        6.4941042989
  N         5.1817816901       16.0180409354        3.0494715637
  C         5.4539115370       16.2862925538        1.7318039988
  N         5.1794150734        5.2069237901       13.8679438162
  C         5.4481040583        5.4775087839       12.5504751120
  N        17.5500043903       16.0150149572       19.7303144620
  C        17.2782880425       16.2831279435       21.0481296766
  N        17.5464711323        5.2028059579        8.9103761160
  C        17.2769726242        5.4725829255       10.2278143940
  N         5.1805834187        6.7639501053       19.7331745537
  C         5.4509520581        6.4950599791       21.0509992186
  N         5.1814731575       17.5753272211        8.9135849559
  C         5.4514465297       17.3050290357       10.2308573992
  N        17.5453555240        6.7598774171        3.0468601500
  C        17.2744055538        6.4914843924        1.7290623354
  N        17.5508595949       17.5721303289       13.8648443510
  C        17.2810653089       17.3021959283       12.5474114296
  N         5.1782695777        3.0495204630        6.7635774628
  C         5.4496573053        1.7318292486        6.4949332555
  N         5.1829587412       13.8679465070       17.5753524284
  C         5.4521499435       12.5505000138       17.3050385431
  N        17.5473337018       19.7306107852        6.7597295096
  C        17.2755121329       21.0482927486        6.4914280901
  N        17.5489655926        8.9102899354       17.5729055844
  C        17.2801076530       10.2277684079       17.3025252303
  N         5.1841674893       19.7329758973       16.0177639720
  C         5.4552351511       21.0508057419       16.2862034736
  N         5.1778014541        8.9136488551        5.2071806697
  C         5.4472952854       10.2309528104        5.4776719441
  N        17.5480885710        3.0470058654       16.0147970959
  C        17.2772256523        1.7290934255       16.2830252224
  N        17.5484287973       13.8647540139        5.2035964176
  C        17.2779704987       12.5473631802        5.4729142765
  N         3.0263722048       16.0191709060       17.5756940234
  C         1.7083541125       16.2869334825       17.3030254985
  N        13.8427818443       16.0166026148        6.7593170320
  C        12.5251560630       16.2868394166        6.4893687516
  N        19.7062308861       16.0159824190        5.2040683661
  C        21.0241661910       16.2851872875        5.4762723167
  N         8.8886420401       16.0185809343       16.0185803210
  C        10.2063963387       16.2883151378       16.2883148365
  N        19.7050910185        6.7598800949       17.5732077894
  C        21.0233679369        6.4920809540       17.3017251546
  N         8.8845912099        6.7614648089        6.7614654508
  C        10.2019828232        6.4909267957        6.4909285963
  N         3.0214085219        6.7634002934        5.2069896911
  C         1.7034151202        6.4943001251        5.4782011281
  N        13.8427798058        6.7593175329       16.0166024464
  C        12.5251564258        6.4893683980       16.2868395865
  N        15.9932733220        5.2027761352       19.7299449380
  C        16.2602287918        5.4747458747       21.0479059870
  N        15.9950955327       16.0158587277        8.9108081326
  C        16.2649783275       16.2857517813       10.2280372723
  N        15.9941156840       17.5718920929        3.0464967798
  C        16.2621989818       17.2999116184        1.7287924144
  N        15.9940546432        6.7600965906       13.8648013319
  C        16.2626403334        6.4895158871       12.5474784415
  N         6.7319746972        5.2064502808        3.0500702632
  C         6.4646380249        5.4780728776        1.7321782438
  N         6.7369671833       16.0183897777       13.8676291660
  C         6.4672139609       16.2882221898       12.5502859696
  N         6.7383337250       17.5750761152       19.7332738773
  C         6.4703305441       17.3031082183       21.0510892381
  N         6.7323956381        6.7636498677        8.9135522533
  C         6.4626833505        6.4941876620       10.2308072284
  N        19.7050911696       17.5732061809        6.7598800345
  C        21.0233692475       17.3017243637        6.4920820776
  N         8.8891360905       17.5748388379       17.5748375280
  C        10.2068489071       17.3043852764       17.3043844985
  N         3.0214075514        5.2069891479        6.7634004741
  C         1.7034158483        5.4782006548        6.4943003493
  N        13.8429900785        5.2030794647       17.5729799965
  C        12.5252139275        5.4734299361       17.3030796238
  N         3.0263719295       17.5756953252       16.0191700011
  C         1.7083540528       17.3030267023       16.2869325929
  N        13.8429908484       17.5729802699        5.2030790764
  C        12.5252145692       17.3030815614        5.4734283730
  N        19.7062306856        5.2040677633       16.0159837369
  C        21.0241648339        5.4762725729       16.2851897471
  N         8.8831829905        5.2052637276        5.2052647147
  C        10.2011760001        5.4748688436        5.4748708624
  N         6.7383335964       19.7332754624       17.5750751528
  C         6.4703299663       21.0510906528       17.3031073660
  N         6.7323949050        8.9135525689        6.7636500446
  C         6.4626814050       10.2308077850        6.4941895042
  N         6.7319748907        3.0500709466        5.2064504469
  C         6.4646385358        1.7321784789        5.4780729753
  N         6.7369674669       13.8676296465       16.0183893002
  C         6.4672145424       12.5502869406       16.2882224543
  N        15.9941142417        3.0464974401       17.5718917246
  C        16.2621989751        1.7287934382       17.2999102348
  N        15.9940560941       13.8648019381        6.7600976806
  C        16.2626413838       12.5474779295        6.4895181094
  N        15.9932745810       19.7299440610        5.2027760227
  C        16.2602277547       21.0479059825        5.4747457415
  N        15.9950939538        8.9108094127       16.0158595601
  C        16.2649778213       10.2280371318       16.2857529224
  N        17.5473327948        6.7597300707       19.7306114949
  C        17.2755117990        6.4914269205       21.0482929250
  N        17.5489668286       17.5729045915        8.9102891109
  C        17.2801095318       17.3025258116       10.2277682025
  N         5.1782693097        6.7635775065        3.0495208371
  C         5.4496568988        6.4949331801        1.7318289186
  N         5.1829587437       17.5753531541       13.8679451376
  C         5.4521494794       17.3050385080       12.5504991219
  N        17.5480897942       16.0147975457        3.0470060266
  C        17.2772273059       16.2830247945        1.7290916518
  N        17.5484273503        5.2035957059       13.8647529784
  C        17.2779673345        5.4729142118       12.5473640649
  N         5.1841676636       16.0177650855       19.7329743803
  C         5.4552355708       16.2862042053       21.0508044058
  N         5.1778024262        5.2071801351        8.9136485215
  C         5.4472975007        5.4776700291       10.2309520594
  N        17.5500032753       19.7303148499       16.0150154342
  C        17.2782868048       21.0481303185       16.2831278188
  N        17.5464729521        8.9103772391        5.2028055946
  C        17.2769758457       10.2278143139        5.4725835003
  N         5.1817805177        3.0494732372       16.0180407446
  C         5.4539103665        1.7318053929       16.2862919933
  N         5.1794151523       13.8679444637        5.2069236798
  C         5.4481025621       12.5504759352        5.4775106621
  N        17.5453554382        3.0468604730        6.7598783118
  C        17.2744046174        1.7290613827        6.4914849619
  N        17.5508587484       13.8648451229       17.5721296695
  C        17.2810638673       12.5474121730       17.3021961350
  N         5.1805845248       19.7331743817        6.7639491306
  C         5.4509533298       21.0509992566        6.4950591707
  N         5.1814725508        8.9135862475       17.5753275326
  C         5.4514463113       10.2308582477       17.3050299309
  N        19.7033204725        6.7602465194        5.2037582317
  C        21.0213734856        6.4927436871        5.4765844475
  N         8.8866897248        6.7609361660       16.0180271453
  C        10.2042555492        6.4901186748       16.2875385667
  N         3.0233484183        6.7624489324       17.5752347882
  C         1.7055207842        6.4934074344       17.3028431164
  N        13.8405606150        6.7597729672        6.7597736561
  C        12.5228084089        6.4900719224        6.4900736956
  N         3.0245423896       16.0186947546        5.2060225537
  C         1.7063478036       16.2866312012        5.4774201299
  N        13.8448389166       16.0169678468       16.0169679732
  C        12.5273478431       16.2874550464       16.2874550652
  N        19.7079474548       16.0161388807       17.5726744695
  C        21.0260948431       16.2854243373       17.3016051659
  N         8.8866910329       16.0180271008        6.7609363289
  C        10.2042563901       16.2875391562        6.4901185853
  N         6.7352446487       17.5756266163        3.0502407536
  C         6.4687511413       17.3033290832        1.7322380659
  N         6.7335934727        6.7634902411       13.8674305537
  C         6.4633717756        6.4941029899       12.5501940854
  N         6.7348785677        5.2070811518       19.7335353095
  C         6.4661566738        5.4783134673       21.0512797441
  N         6.7358971672       16.0184446646        8.9132489339
  C         6.4666293030       16.2882900826       10.2306154809
  N        15.9964466089       17.5725390222       19.7299720440
  C        16.2633969822       17.3002070169       21.0478513148
  N        15.9925261895        6.7597316825        8.9108487553
  C        16.2618304040        6.4893318710       10.2280721260
  N        15.9907678636        5.2034296684        3.0466005514
  C        16.2589484116        5.4750320114        1.7288409664
  N        15.9965473368       16.0154968404       13.8648220336
  C        16.2657482211       16.2855695020       12.5474978924
 Zn        14.7055608183       14.7224961206       14.7224957418
 Cl        13.4710877315       13.4911596789       13.4911592747
 Zn        14.7033047813        3.9085757962        3.9085766294
 Cl        13.4632123266        2.6799922296        2.6799933964
 Zn         3.8903488777       14.7262999959        3.9109755562
 Cl         2.6573019072       13.4906902403        2.6824369012
 Zn         3.8903481295        3.9109771753       14.7262995928
 Cl         2.6573011141        2.6824379078       13.4906905218
 Zn         8.0261941627        8.0551858959       14.7238851374
 Cl         9.2594878912        9.2867695283       13.4915657594
 Zn         8.0220876465       18.8709000625        3.9124567330
 Cl         9.2617324865       20.0987385083        2.6825270524
 Zn        18.8362729664        8.0515105130        3.9080547858
 Cl        20.0681267942        9.2869821159        2.6781019048
 Zn        18.8402583567       18.8675077469       14.7238218890
 Cl        20.0730727892       20.0946711162       13.4863963097
 Zn         8.0261949906       14.7238856912        8.0551851276
 Cl         9.2594884148       13.4915660324        9.2867692962
 Zn         8.0220861793        3.9124583032       18.8708996335
 Cl         9.2617311256        2.6825281606       20.0987380545
 Zn        18.8402586864       14.7238221524       18.8675070180
 Cl        20.0730729118       13.4863962851       20.0946704911
 Zn        18.8362731180        3.9080544831        8.0515111143
 Cl        20.0681259218        2.6781022360        9.2869831657
 Zn        14.7023875738        8.0537379729        8.0537380063
 Cl        13.4688346144        9.2855748802        9.2855747817
 Zn        14.7090790709       18.8679422988       18.8679422599
 Cl        13.4703989611       20.0971703240       20.0971705622
 Zn         3.8896491096        8.0547017436       18.8697837086
 Cl         2.6579111508        9.2920183590       20.0979218969
 Zn         3.8896494837       18.8697837248        8.0547007257
 Cl         2.6579116343       20.0979218722        9.2920170576
 Zn        14.7040449792       14.7225368345        8.0537352850
 Cl        13.4699823154       13.4910844618        9.2854121224
 Zn        14.7064073687        3.9077868539       18.8672177667
 Cl        13.4669884367        2.6780871922       20.0953088815
 Zn         3.8921188388       14.7263776932       18.8703048018
 Cl         2.6599458768       13.4901901331       20.0990330645
 Zn         3.8878207455        3.9118085369        8.0547652923
 Cl         2.6552974971        2.6836656322        9.2914224041
 Zn         8.0243339272        8.0555422863        8.0555420736
 Cl         9.2581684090        9.2872428908        9.2872430299
 Zn         8.0260963064       18.8698135223       18.8698122276
 Cl         9.2670738011       20.0979382022       20.0979370313
 Zn        18.8376807993        8.0513463214       18.8687425060
 Cl        20.0710965120        9.2874430762       20.0965824276
 Zn        18.8376812281       18.8687419000        8.0513458291
 Cl        20.0710976840       20.0965814846        9.2874427097
 Zn        14.7040442841        8.0537352216       14.7225372251
 Cl        13.4699812391        9.2854120080       13.4910847693
 Zn        14.7064082654       18.8672172798        3.9077863555
 Cl        13.4669892101       20.0953084530        2.6780866589
 Zn         3.8878205226        8.0547660817        3.9118081465
 Cl         2.6552970212        9.2914223529        2.6836656805
 Zn         3.8921189609       18.8703055807       14.7263766362
 Cl         2.6599461616       20.0990334416       13.4901882974
 Zn         8.0280835536       14.7242111884       14.7242109425
 Cl         9.2607858774       13.4919874423       13.4919875080
 Zn         8.0187792287        3.9110390176        3.9110385115
 Cl         9.2569308052        2.6814169717        2.6814168939
 Zn        18.8387794749       14.7236497782        3.9092804554
 Cl        20.0700655075       13.4868279959        2.6800234520
 Zn        18.8387785180        3.9092811052       14.7236502288
 Cl        20.0700648301        2.6800229704       13.4868290157
 Zn         5.9547078408        5.9869819093       16.7993900704
 Zn        16.7739587621       16.7938824495       16.7938820946
 Zn        16.7705397729        5.9817341278        5.9817347984
 Zn         5.9547084808       16.7993912538        5.9869798562
 Zn         5.9528830859        5.9869658822        5.9869651955
 Zn        16.7722773138       16.7939926923        5.9817877572
 Zn         5.9565864731       16.7994130018       16.7994106272
 Zn        16.7722763953        5.9817877701       16.7939937845
  N         3.7701940242        5.9835434963       16.7981685882
  N        14.5865406950        5.9814555762        5.9814559691
  N        18.9616801653       16.7949754347       16.7949748907
  N         8.1400712257       16.7971373158        5.9839549467
  N        18.9570379349        5.9804980620        5.9804981105
  N         8.1400701846        5.9839559740       16.7971362175
  N         3.7701947006       16.7981687841        5.9835421063
  N        14.5916243283       16.7949364331       16.7949362741
  N        16.7688538603        3.7934505329        5.9807901325
  N        16.7736722957       14.6113607661       16.7939030502
  N        16.7744730368       18.9833833965       16.7949210694
  N        16.7694481617        8.1640708177        5.9813652150
  N         5.9571586578       18.9866800953        5.9848350821
  N         5.9584807882        8.1670139072       16.7969317191
  N         5.9569147903        3.7966492823       16.7981073642
  N         5.9569208989       14.6143575601        5.9849632538
  N         5.9569161798       16.7981076944        3.7966476886
  N         5.9569197903        5.9849644656       14.6143570091
  N        16.7744731327       16.7949214988       18.9833828378
  N        16.7694475755        5.9813656841        8.1640703598
  N         5.9571576497        5.9848362683       18.9866800021
  N         5.9584814419       16.7969318927        8.1670129562
  N        16.7688541344        5.9807897846        3.7934506116
  N        16.7736725154       16.7939038141       14.6113601926
  N         5.9540118422        3.7966128244        5.9841228730
  N         5.9601020419       14.6144330921       16.7969559774
  N        16.7715949987       18.9835051111        5.9802433062
  N        16.7716157477        8.1640192952       16.7946333901
  N         5.9602259228       18.9864914013       16.7975182991
  N         5.9551710976        8.1671669110        5.9852398439
  N        16.7718723403        3.7934649634       16.7943524143
  N        16.7715867046       14.6113192131        5.9821036303
  N         3.7726222241       16.7988131632       16.7988119399
  N        14.5891541201       16.7947060234        5.9811260464
  N        18.9593907854       16.7953374187        5.9807603154
  N         8.1425150899       16.7968791005       16.7968778953
  N        18.9593900058        5.9807602718       16.7953384281
  N         8.1375308188        5.9836436981        5.9836438765
  N         3.7676709665        5.9845853169        5.9845847534
  N        14.5891531982        5.9811267344       16.7947059247
  N        16.7715944519        5.9802445656       18.9835051673
  N        16.7716166552       16.7946332738        8.1640188547
  N        16.7718733086       16.7943525345        3.7934640937
  N        16.7715857092        5.9821043264       14.6113189033
  N         5.9540117480        5.9841228934        3.7966127131
  N         5.9601024080       16.7969567250       14.6144321021
  N         5.9602259329       16.7975195341       18.9864897814
  N         5.9551708935        5.9852400730        8.1671666612
  C        11.3664899189       15.7374727360       15.7374729087
  H        11.3660008254       14.9618725912       14.9618730438
  C        11.3613343642        4.9241821405        4.9241846036
  H        11.3607068050        4.1486724128        4.1486749290
  C         0.5458445130       15.7350995232        4.9275742140
  H         0.5471103491       14.9589660857        4.1526274065
  C         0.5458445902        4.9275735848       15.7351011826
  H         0.5471099637        4.1526265757       14.9589676745
  C        11.3647239927        7.0398689166       15.7365010690
  H        11.3647764087        7.8152518093       14.9606935538
  C        11.3646133653       17.8538719455        4.9238402556
  H        11.3645922734       18.6295407467        4.1484925170
  C         0.5424160363        7.0443034899        4.9280430218
  H         0.5426505935        7.8203222621        4.1529865228
  C         0.5472443105       17.8517082856       15.7355455048
  H         0.5475194355       18.6268534516       14.9596114397
  C        11.3647251588       15.7365015275        7.0398688119
  H        11.3647768270       14.9606940048        7.8152516053
  C        11.3646108786        4.9238398834       17.8538716175
  H        11.3645901313        4.1484918933       18.6295407358
  C         0.5472445050       15.7355459010       17.8517071739
  H         0.5475198861       14.9596115951       18.6268521624
  C         0.5424171844        4.9280427119        7.0443033697
  H         0.5426519484        4.1529860788        7.8203221517
  C        11.3627869180        7.0409095235        7.0409115356
  H        11.3633363750        7.8165005808        7.8165024911
  C        11.3678178604       17.8541609431       17.8541602743
  H        11.3684393323       18.6296685081       18.6296676552
  C         0.5438968870        7.0433086121       17.8517700825
  H         0.5431345553        7.8191808598       18.6269701916
  C         0.5438968401       17.8517685900        7.0433089676
  H         0.5431350637       18.6269686276        7.8191810912
  C        15.7148931741       11.3879000984       15.7344933811
  H        14.9395291029       11.3880699001       14.9586230645
  C        15.7087413722        0.5681589702        4.9249520936
  H        14.9329785451        0.5678909789        4.1496143837
  C         4.8970834159       11.3908680675        4.9268422883
  H         4.1217203886       11.3910038732        4.1511236361
  C         4.9052084487        0.5710582640       15.7348854285
  H         4.1300898985        0.5706782015       14.9588918707
  C        15.7115893900       11.3879179465        7.0404427926
  H        14.9362858460       11.3881039494        7.8163711791
  C        15.7121408201        0.5681278596       17.8501189608
  H        14.9366061925        0.5678996296       18.6256782669
  C         4.9014469961       11.3908452167       17.8559091637
  H         4.1261460872       11.3909949529       18.6316760085
  C         4.9007062462        0.5711803088        7.0462207142
  H         4.1257021693        0.5708104280        7.8223183507
  C         7.0172373002       11.3903001036       15.7369714285
  H         7.7922499546       11.3899676632       14.9607320883
  C         7.0159367176        0.5720387698        4.9278691149
  H         7.7912886904        0.5727061336        4.1520879829
  C        17.8277697395       11.3874328373        4.9217116434
  H        18.6030309578       11.3871596590        4.1458876504
  C        17.8270435582        0.5688417169       15.7315444611
  H        18.6017527860        0.5694259189       14.9551293743
  C         7.0134448543       11.3903602054        7.0453995441
  H         7.7888471848       11.3900455893        7.8212321717
  C         7.0201337663        0.5719950854       17.8533354416
  H         7.7954593230        0.5726937910       18.6291264888
  C        17.8310775620       11.3874421407       17.8531575911
  H        18.6064885961       11.3871807226       18.6288325366
  C        17.8245882847        0.5689221385        7.0426637229
  H        18.5997638394        0.5695389316        7.8186051147
  C        15.7148945131       15.7344922225       11.3878992402
  H        14.9395307120       14.9586217591       11.3880694785
  C        15.7087414762        4.9249508708        0.5681596216
  H        14.9329782456        4.1496130116        0.5678909379
  C         4.9052092673       15.7348860759        0.5710565714
  H         4.1300906632       14.9588924832        0.5706767404
  C         4.8970860269        4.9268401083       11.3908677426
  H         4.1217230577        4.1511215317       11.3910033713
  C         7.0172367033       15.7369707990       11.3902993513
  H         7.7922494017       14.9607314351       11.3899669055
  C         7.0159356443        4.9278694886        0.5720382274
  H         7.7912875858        4.1520884103        0.5727053756
  C        17.8270447547       15.7315447633        0.5688412103
  H        18.6017538339       14.9551298476        0.5694247721
  C        17.8277674826        4.9217093617       11.3874326392
  H        18.6030289748        4.1458850228       11.3871597882
  C        15.7115866664        7.0404407237       11.3879167538
  H        14.9362828413        7.8163690329       11.3881029989
  C        15.7121423723       17.8501191832        0.5681283885
  H        14.9366081446       18.6256783162        0.5678998298
  C         4.9007052533        7.0462211940        0.5711800466
  H         4.1257011882        7.8223187988        0.5708107638
  C         4.9014466042       17.8559088317       11.3908446198
  H         4.1261458044       18.6316758659       11.3909941104
  C         7.0134471721        7.0453976802       11.3903599689
  H         7.7888493136        7.8212304316       11.3900451864
  C         7.0201346871       17.8533360760        0.5719932130
  H         7.7954603438       18.6291270756        0.5726919524
  C        17.8245885418        7.0426626268        0.5689235477
  H        18.5997640767        7.8186040760        0.5695399645
  C        17.8310787112       17.8531565557       11.3874410112
  H        18.6064898019       18.6288310904       11.3871799844
 Kr         2.1407737178       10.7359448912       10.7359446430
