     409
 i =     150, E =    -5183.7517218375
  N         3.0120407775        5.2053115449       16.0244734757
  C         1.6936638303        5.4754839730       16.2921615112
  N        13.8223610654        5.2018321099        5.2018277583
  C        12.5050537441        5.4729637682        5.4729573167
  N        19.6979132429       17.5749159804       16.0183757072
  C        21.0158761077       17.3055736073       16.2894487286
  N         8.8730507951       17.5808406287        5.2077305748
  C        10.1908310061       17.3083426932        5.4751389475
  N        19.6865971427        5.2014585663        6.7577292802
  C        21.0042444219        5.4745660050        6.4906273901
  N         8.8730522278        5.2077342065       17.5808458271
  C        10.1908328643        5.4751453173       17.3083466386
  N         3.0092889810       17.5798748231        6.7624114691
  C         1.6918601853       17.3079294067        6.4918670302
  N        13.8361441353       17.5763373298       17.5763414622
  C        12.5179095479       17.3072149517       17.3072181241
  N        15.9745043744        3.0456701090        5.2006695150
  C        16.2443321614        1.7280740515        5.4717149299
  N        15.9867669990       13.8654263700       16.0185492054
  C        16.2550157345       12.5477758186       16.2891663102
  N        15.9889662692       19.7297377403       17.5739659421
  C        16.2557544542       21.0475215028       17.3020315843
  N        15.9778609416        8.9101489415        6.7564953957
  C        16.2479003574       10.2275908786        6.4861834695
  N         6.7187731691       19.7382112901        5.2090998225
  C         6.4472159565       21.0556185154        5.4786143094
  N         6.7187886645        8.9162402680       16.0230619983
  C         6.4490852101       10.2338053900       16.2924902439
  N         6.7211732419        3.0536158927       17.5837613288
  C         6.4539106794        1.7357374989       17.3123549773
  N         6.7165084938       13.8706323288        6.7652232908
  C         6.4440823306       12.5534080269        6.4967683045
  N         5.1690206088       16.0251011669        3.0526796086
  C         5.4399408191       16.2944729620        1.7351577186
  N         5.1630715128        5.2081239283       13.8722914334
  C         5.4292162199        5.4798355600       12.5544101313
  N        17.5417569833       16.0158154266       19.7305507823
  C        17.2701342539       16.2845353840       21.0481104609
  N        17.5322363867        5.1994745271        8.9094915246
  C        17.2631429030        5.4694958271       10.2270827370
  N         5.1632792396        6.7651195002       19.7368860052
  C         5.4314681074        6.4948728814       21.0547997520
  N         5.1645159835       17.5804573090        8.9169623632
  C         5.4342399702       17.3096567332       10.2343474015
  N        17.5304128372        6.7566680917        3.0464755807
  C        17.2601770139        6.4878932598        1.7287870390
  N        17.5415307806       17.5749608871       13.8647073001
  C        17.2704322906       17.3056673908       12.5473170727
  N         5.1578144609        3.0531914343        6.7642242962
  C         5.4286222216        1.7355505863        6.4945363623
  N         5.1694874074       13.8722401870       17.5814594274
  C         5.4366448311       12.5545081309       17.3101371938
  N        17.5354406084       19.7309860895        6.7570499960
  C        17.2628854454       21.0483009548        6.4882274256
  N        17.5373386542        8.9096005322       17.5766396640
  C        17.2683131539       10.2271844751       17.3064476938
  N         5.1719589430       19.7369486131       16.0245649889
  C         5.4414728732       21.0546764513       16.2941709986
  N         5.1564601210        8.9167499434        5.2088222904
  C         5.4259779396       10.2341433778        5.4801301420
  N        17.5380319950        3.0464939434       16.0156620818
  C        17.2681064328        1.7286773952       16.2845070757
  N        17.5374552861       13.8646064636        5.2013012204
  C        17.2657646002       12.5472588892        5.4702728293
  N         3.0157172124       16.0251740520       17.5815468569
  C         1.6977617866       16.2926754985       17.3087728403
  N        13.8300201503       16.0185513356        6.7564845953
  C        12.5122156999       16.2894119940        6.4874550702
  N        19.6943731503       16.0186067225        5.2020046136
  C        21.0119330202       16.2892832068        5.4736772409
  N         8.8766331695       16.0239657215       16.0239654617
  C        10.1948153435       16.2931813370       16.2931820451
  N        19.6921838502        6.7576531964       17.5758629136
  C        21.0103466486        6.4894445400       17.3057173186
  N         8.8686775424        6.7624955355        6.7624983824
  C        10.1859128394        6.4913912671        6.4913903587
  N         3.0030099686        6.7644108855        5.2085538653
  C         1.6852359217        6.4939434711        5.4779421076
  N        13.8300244924        6.7564797938       16.0185471528
  C        12.5122199674        6.4874567002       16.2894129661
  N        15.9811484784        5.2001147617       19.7292015983
  C        16.2475909517        5.4716093373       21.0472285992
  N        15.9831378976       16.0196017128        8.9101665154
  C        16.2531361899       16.2897114640       10.2276053349
  N        15.9839911769       17.5729537971        3.0455268828
  C        16.2532876817       17.3016247726        1.7280363539
  N        15.9825189064        6.7576419750       13.8655522804
  C        16.2502870993        6.4867174900       12.5478630005
  N         6.7127966897        5.2078372697        3.0539722690
  C         6.4441910581        5.4781770770        1.7362074491
  N         6.7222239429       16.0236369203       13.8713778031
  C         6.4509814585       16.2926665608       12.5539537621
  N         6.7252547160       17.5826138080       19.7376429163
  C         6.4558434820       17.3117768723       21.0551818258
  N         6.7120029867        6.7650389609        8.9160036461
  C         6.4415289142        6.4966021556       10.2334805342
  N        19.6921910185       17.5758689372        6.7576600926
  C        21.0103541591       17.3057221845        6.4894468274
  N         8.8788780186       17.5804160444       17.5804131282
  C        10.1963722673       17.3092798444       17.3092786667
  N         3.0030073587        5.2085479743        6.7644136505
  C         1.6852339660        5.4779394476        6.4939436799
  N        13.8298930487        5.2000163174       17.5744793803
  C        12.5120905766        5.4714672720       17.3055545703
  N         3.0157167779       17.5815491251       16.0251738760
  C         1.6977606255       17.3087740444       16.2926750723
  N        13.8298895937       17.5744838801        5.2000198972
  C        12.5120865548       17.3055535193        5.4714649175
  N        19.6943704453        5.2019989378       16.0186022169
  C        21.0119297694        5.4736747664       16.2892785599
  N         8.8662118406        5.2063831144        5.2063850866
  C        10.1842133256        5.4753588553        5.4753568244
  N         6.7252578609       19.7376448819       17.5826110411
  C         6.4558507343       21.0551833773       17.3117699089
  N         6.7120003646        8.9160013022        6.7650480980
  C         6.4415301119       10.2334778539        6.4966053447
  N         6.7127967849        3.0539619166        5.2078435749
  C         6.4441744070        1.7361959034        5.4781597589
  N         6.7222260630       13.8713834794       16.0236345569
  C         6.4509925644       12.5539597705       16.2926766388
  N        15.9839871693        3.0455196751       17.5729464939
  C        16.2532824236        1.7280293627       17.3016198301
  N        15.9825218613       13.8655624364        6.7576454759
  C        16.2502877956       12.5478730137        6.4867165560
  N        15.9811465084       19.7292142743        5.2001185285
  C        16.2475917058       21.0472416125        5.4716098702
  N        15.9831381411        8.9101561044       16.0196000759
  C        16.2531342311       10.2275948328       16.2897122907
  N        17.5354416578        6.7570441847       19.7309718068
  C        17.2628843457        6.4882268680       21.0482863234
  N        17.5373389189       17.5766437516        8.9096123820
  C        17.2683150323       17.3064473137       10.2271964909
  N         5.1578133397        6.7642168859        3.0532061977
  C         5.4286373633        6.4945517345        1.7355644851
  N         5.1694878259       17.5814635609       13.8722319139
  C         5.4366354128       17.3101287626       12.5544999047
  N        17.5380349476       16.0156662641        3.0465024325
  C        17.2681103150       16.2845107759        1.7286857395
  N        17.5374522036        5.2012996803       13.8645953711
  C        17.2657645231        5.4702741362       12.5472475715
  N         5.1719558805       16.0245677731       19.7369458946
  C         5.4414651234       16.2941778913       21.0546737758
  N         5.1564603328        5.2088133145        8.9167542557
  C         5.4259762881        5.4801272226       10.2341474304
  N        17.5417539801       19.7305446623       16.0158173523
  C        17.2701304546       21.0481034274       16.2845352521
  N        17.5322379402        8.9095003704        5.1994686754
  C        17.2631428047       10.2270925597        5.4694896186
  N         5.1690168717        3.0526829509       16.0251046192
  C         5.4399430533        1.7351609438       16.2944707430
  N         5.1630733634       13.8722860677        5.2081240611
  C         5.4292206388       12.5544047598        5.4798332978
  N        17.5304143381        3.0464883991        6.7566634996
  C        17.2601793903        1.7288011809        6.4878888815
  N        17.5415268463       13.8646974262       17.5749659090
  C        17.2704281472       12.5473059856       17.3056722576
  N         5.1632882897       19.7368750946        6.7651191278
  C         5.4314583758       21.0547871151        6.4948548241
  N         5.1645099833        8.9169686719       17.5804600226
  C         5.4342449964       10.2343544861       17.3096671948
  N        19.6865981101        6.7577362908        5.2014561430
  C        21.0042460401        6.4906318786        5.4745650178
  N         8.8732765409        6.7623016719       16.0228289276
  C        10.1909790270        6.4903606004       16.2914302011
  N         3.0092798400        6.7624136371       17.5798773986
  C         1.6918511027        6.4918687617       17.3079290421
  N        13.8248728130        6.7578127105        6.7578076532
  C        12.5067561100        6.4889772060        6.4889707609
  N         3.0120457782       16.0244711075        5.2053107332
  C         1.6936690497       16.2921618017        5.4754829481
  N        13.8338107452       16.0199971937       16.0199988426
  C        12.5163501586       16.2911307739       16.2911332317
  N        19.6979136927       16.0183732081       17.5749190336
  C        21.0158769970       16.2894477796       17.3055751468
  N         8.8732750713       16.0228263215        6.7622959614
  C        10.1909762342       16.2914268953        6.4903543316
  N         6.7211760444       17.5837569035        3.0536140389
  C         6.4539090112       17.3123571061        1.7357353873
  N         6.7165069429        6.7652247492       13.8706356575
  C         6.4440770508        6.4967706096       12.5534113334
  N         6.7187695434        5.2090994326       19.7382213590
  C         6.4472283411        5.4786338050       21.0556287453
  N         6.7187922075       16.0230617489        8.9162350513
  C         6.4490791870       16.2924795467       10.2337998689
  N        15.9889679568       17.5739620518       19.7297438199
  C        16.2557578710       17.3020309662       21.0475275007
  N        15.9778600244        6.7565031069        8.9101404632
  C        16.2479008116        6.4861905148       10.2275821256
  N        15.9745067097        5.2006720469        3.0456577216
  C        16.2443317775        5.4717175302        1.7280610671
  N        15.9867697832       16.0185443741       13.8654364751
  C        16.2550193611       16.2891618714       12.5477862250
 Zn        14.6963649927       14.7253364634       14.7253437085
 Cl        13.4612068051       13.4943254808       13.4943354712
 Zn        14.6808806355        3.9069794196        3.9069673853
 Cl        13.4459436178        2.6762033983        2.6761878090
 Zn         3.8782501010       14.7319237425        3.9106233558
 Cl         2.6440534721       13.5000033843        2.6792419261
 Zn         3.8782361350        3.9106155431       14.7319164651
 Cl         2.6440446412        2.6792290297       13.4999912004
 Zn         8.0099308655        8.0558002000       14.7286855830
 Cl         9.2424110910        9.2882019382       13.4965271397
 Zn         8.0102475256       18.8767497223        3.9163557732
 Cl         9.2448529519       20.1089079910        2.6857213522
 Zn        18.8242681414        8.0497047212        3.9056402583
 Cl        20.0564787183        9.2822701865        2.6736715173
 Zn        18.8327952126       18.8688469744       14.7240621708
 Cl        20.0658964099       20.0981359749       13.4892690016
 Zn         8.0099234554       14.7286979741        8.0557889287
 Cl         9.2423940680       13.4965305076        9.2881823215
 Zn         8.0102547453        3.9163347028       18.8767618739
 Cl         9.2448726901        2.6857160698       20.1089317857
 Zn        18.8327936707       14.7240554653       18.8688505896
 Cl        20.0658925751       13.4892618260       20.0981443892
 Zn        18.8242699673        3.9056497769        8.0496982555
 Cl        20.0564852719        2.6736812837        9.2822555663
 Zn        14.6864253939        8.0514820528        8.0514703383
 Cl        13.4540994286        9.2837664431        9.2837582117
 Zn        14.7021027306       18.8700216791       18.8700304567
 Cl        13.4684730458       20.1019437826       20.1019506376
 Zn         3.8722169082        8.0562886846       18.8735291599
 Cl         2.6398481159        9.2911233933       20.1036034296
 Zn         3.8722385009       18.8735197168        8.0562819938
 Cl         2.6398605194       20.1035877469        9.2911075424
 Zn        14.6922183747       14.7252993625        8.0515311431
 Cl        13.4581638078       13.4944747881        9.2837690099
 Zn        14.6935672738        3.9048397846       18.8676790900
 Cl        13.4583629676        2.6727838452       20.0976481601
 Zn         3.8815137160       14.7318814239       18.8754106715
 Cl         2.6481538760       13.4997275305       20.1074436457
 Zn         3.8642970204        3.9138761602        8.0561909661
 Cl         2.6327395158        2.6832781382        9.2909526886
 Zn         8.0065185542        8.0558264967        8.0558304904
 Cl         9.2387662335        9.2881729893        9.2881836020
 Zn         8.0155362428       18.8747900300       18.8747893669
 Cl         9.2516097416       20.1054357244       20.1054271330
 Zn        18.8279857424        8.0498272091       18.8712139915
 Cl        20.0601177443        9.2830837428       20.1028071537
 Zn        18.8279910881       18.8712276843        8.0498411206
 Cl        20.0601334162       20.1028186658        9.2830970004
 Zn        14.6922268863        8.0515218736       14.7253004167
 Cl        13.4581717299        9.2837551889       13.4944755194
 Zn        14.6935567508       18.8676925286        3.9048394150
 Cl        13.4583573275       20.0976675160        2.6727799049
 Zn         3.8643071525        8.0561870775        3.9138874871
 Cl         2.6327329298        9.2909455125        2.6833037840
 Zn         3.8815141845       18.8754131274       14.7318802316
 Cl         2.6481649048       20.1074435425       13.4997122424
 Zn         8.0124713958       14.7297133686       14.7297064225
 Cl         9.2451702880       13.4974942463       13.4974944656
 Zn         8.0039957011        3.9129262349        3.9129378623
 Cl         9.2365099920        2.6807374178        2.6807357555
 Zn        18.8301012707       14.7240241199        3.9082404360
 Cl        20.0624800578       13.4895613637        2.6780500855
 Zn        18.8300909081        3.9082466316       14.7240254574
 Cl        20.0624694740        2.6780561165       13.4895678020
 Zn         5.9449746978        5.9899992581       16.8081754600
 Zn        16.7679513757       16.7955886488       16.7955799823
 Zn        16.7587704671        5.9774583220        5.9774761215
 Zn         5.9449774662       16.8081623904        5.9899915780
 Zn         5.9392148527        5.9897619839        5.9897723362
 Zn        16.7643482778       16.7959641246        5.9784097759
 Zn         5.9487222467       16.8082094171       16.8082083752
 Zn        16.7643470926        5.9783967388       16.7959566420
  N         3.7570712333        5.9839256389       16.8033382040
  N        14.5702010423        5.9792524780        5.9792483612
  N        18.9517113432       16.7962244432       16.7962272260
  N         8.1268990469       16.8030447543        5.9862776299
  N        18.9402918033        5.9779344098        5.9779296260
  N         8.1269017837        5.9862831744       16.8030502490
  N         3.7570788623       16.8033352839        5.9839228282
  N        14.5813391742       16.7976522200       16.7976549352
  N        16.7528223268        3.7925848771        5.9780076560
  N        16.7649400619       14.6116188785       16.7963560769
  N        16.7667069461       18.9833945067       16.7958995534
  N        16.7549275010        8.1631988245        5.9780898403
  N         5.9420082450       18.9910737960        5.9874563948
  N         5.9418487135        8.1702614982       16.8022932741
  N         5.9441104427        3.7999615680       16.8050193595
  N         5.9415651100       14.6183372692        5.9856724959
  N         5.9441122847       16.8050157354        3.7999585150
  N         5.9415670353        5.9856703438       14.6183416407
  N        16.7667082551       16.7958956857       18.9833995759
  N        16.7549262070        5.9780966174        8.1631914471
  N         5.9419983748        5.9874522473       18.9910855928
  N         5.9418545818       16.8022925133        8.1702544640
  N        16.7528226804        5.9780112832        3.7925727424
  N        16.7649431616       16.7963516899       14.6116287413
  N         5.9348785259        3.8003144897        5.9858810532
  N         5.9470301573       14.6186682537       16.8033519096
  N        16.7600263820       18.9833960519        5.9776960925
  N        16.7600956263        8.1632738717       16.7980761433
  N         5.9485536828       18.9908219451       16.8039635651
  N         5.9347340843        8.1700331919        5.9861470007
  N        16.7613513023        3.7926118493       16.7950787609
  N        16.7610556108       14.6116568672        5.9800539897
  N         3.7620486407       16.8048163275       16.8048154490
  N        14.5764050280       16.7960355041        5.9776923646
  N        18.9470412528       16.7971834547        5.9789257285
  N         8.1315490877       16.8027199188       16.8027177762
  N        18.9470354333        5.9789181333       16.7971784729
  N         8.1210833479        5.9849782097        5.9849795194
  N         3.7496466335        5.9866901076        5.9866955471
  N        14.5764100501        5.9776848673       16.7960285974
  N        16.7600288808        5.9776899294       18.9833815166
  N        16.7600944572       16.7980803136        8.1632861575
  N        16.7613547139       16.7950843371        3.7926198667
  N        16.7610512472        5.9800502556       14.6116461267
  N         5.9348697649        5.9858634726        3.8003276729
  N         5.9470346861       16.8033615213       14.6186605846
  N         5.9485526150       16.8039638643       18.9908198334
  N         5.9347357546        5.9861370313        8.1700364805
  C        11.3546437441       15.7419508680       15.7419525338
  H        11.3531297250       14.9663950595       14.9663958923
  C        11.3435577042        4.9237859985        4.9237796451
  H        11.3417916288        4.1482273382        4.1482196238
  C         0.5338979128       15.7401934512        4.9247779740
  H         0.5356944110       14.9643592661        4.1495297983
  C         0.5338926584        4.9247783200       15.7401908930
  H         0.5356842803        4.1495298479       14.9643570708
  C        11.3518033270        7.0388268267       15.7397919818
  H        11.3520715527        7.8141771771       14.9640324504
  C        11.3512758377       17.8573433938        4.9231577070
  H        11.3508210731       18.6333074602        4.1480209478
  C         0.5247925500        7.0431061671        4.9263918924
  H         0.5248250544        7.8189532374        4.1511310599
  C         0.5368406865       17.8569741983       15.7406486958
  H         0.5368813279       18.6323980209       14.9649823608
  C        11.3517979972       15.7397888299        7.0388235286
  H        11.3520565621       14.9640322799        7.8141761752
  C        11.3512799464        4.9231630603       17.8573465730
  H        11.3508304007        4.1480249897       18.6333085217
  C         0.5368400543       15.7406486315       17.8569746508
  H         0.5368787920       14.9649829826       18.6323990845
  C         0.5247908391        4.9263884681        7.0431030043
  H         0.5248228850        4.1511256960        7.8189472923
  C        11.3474647236        7.0405651473        7.0405605650
  H        11.3491863929        7.8161183783        7.8161143543
  C        11.3580983053       17.8584309864       17.8584309750
  H        11.3595105428       18.6339723643       18.6339701909
  C         0.5300545401        7.0411631481       17.8566934649
  H         0.5283087154        7.8169245400       18.6320324367
  C         0.5300637311       17.8566960153        7.0411614884
  H         0.5283220048       18.6320346721        7.8169223720
  C        15.7036863178       11.3879938766       15.7386125863
  H        14.9285153488       11.3885130122       14.9626191136
  C        15.6952594232        0.5669331437        4.9214798659
  H        14.9198093301        0.5657092802        4.1458027832
  C         4.8770407935       11.3949771184        4.9293756851
  H         4.1022507034       11.3960606798        4.1530407129
  C         4.8914012567        0.5746513998       15.7426015855
  H         4.1170304001        0.5741436084       14.9658145857
  C        15.6986320273       11.3881596974        7.0371484075
  H        14.9234678038       11.3888802617        7.8131414224
  C        15.7042189697        0.5672996933       17.8525364834
  H        14.9293439216        0.5664831533       18.6288137506
  C         4.8853740216       11.3949004248       17.8610035010
  H         4.1108990769       11.3955906074       18.6376582275
  C         4.8798564456        0.5746149328        7.0454101168
  H         4.1048741781        0.5735918551        7.8215484009
  C         6.9996998062       11.3935182170       15.7410625166
  H         7.7744971647       11.3928745706       14.9647108451
  C         6.9960568115        0.5765149084        4.9278516332
  H         7.7717125138        0.5774593478        4.1523753746
  C        17.8145801120       11.3867554140        4.9189379759
  H        18.5899317791       11.3861714852        4.1431805928
  C        17.8184662878        0.5688451371       15.7329118498
  H        18.5930271480        0.5696537536       14.9563616617
  C         6.9925999726       11.3928470030        7.0481135239
  H         7.7679609507       11.3918257808        7.8238867272
  C         7.0047823034        0.5757987477       17.8631436011
  H         7.7793109162        0.5762955272       18.6397192676
  C        17.8195997036       11.3869329116       17.8569581142
  H        18.5949861829       11.3864697878       18.6326916600
  C        17.8113460080        0.5692363154        7.0391264274
  H        18.5866136467        0.5703661709        7.8149820524
  C        15.7036886181       15.7386095442       11.3880062869
  H        14.9285168455       14.9626170304       11.3885299977
  C        15.6952595262        4.9214803731        0.5669181890
  H        14.9198119520        4.1458006721        0.5656885070
  C         4.8913952886       15.7426058374        0.5746489120
  H         4.1170295975       14.9658134384        0.5741423591
  C         4.8770352670        4.9293783518       11.3949814295
  H         4.1022413222        4.1530482716       11.3960635721
  C         6.9996912826       15.7410510406       11.3935115945
  H         7.7744993314       14.9647098553       11.3928634655
  C         6.9960748458        4.9278741636        0.5765262672
  H         7.7717183504        4.1523871856        0.5774752479
  C        17.8184701964       15.7329136159        0.5688520490
  H        18.5930306552       14.9563628477        0.5696573161
  C        17.8145810076        4.9189419897       11.3867444384
  H        18.5899323086        4.1431842308       11.3861586557
  C        15.6986324362        7.0371531678       11.3881495982
  H        14.9234680806        7.8131463324       11.3888691317
  C        15.7042243185       17.8525386124        0.5673071762
  H        14.9293494532       18.6288156858        0.5664932326
  C         4.8798702609        7.0454271961        0.5746298689
  H         4.1048717080        7.8215508000        0.5736125110
  C         4.8853679720       17.8609953230       11.3948913629
  H         4.1109062655       18.6376628882       11.3955778575
  C         6.9925936975        7.0481161373       11.3928500422
  H         7.7679500345        7.8238943151       11.3918296555
  C         7.0047773525       17.8631468828        0.5757962985
  H         7.7793130622       18.6397160510        0.5762949235
  C        17.8113430728        7.0391289918        0.5692209709
  H        18.5866108168        7.8149848580        0.5703472000
  C        17.8196032568       17.8569550385       11.3869447409
  H        18.5949902084       18.6326878891       11.3864838928
 Xe         2.3320696660       10.6196853526       10.6196853313
