     409
 i =     150, E =    -5183.7514155333
  N         2.6917549166        5.2048781952       16.0231542174
  C         1.3734618902        5.4751665013       16.2913277543
  N        13.5051807571        5.2020040998        5.2019917916
  C        12.1876555630        5.4729203202        5.4729154068
  N        19.3768538483       17.5755492192       16.0190208444
  C        20.6948292295       17.3057414623       16.2896108842
  N         8.5534862548       17.5805199775        5.2074659897
  C         9.8713418541       17.3080763305        5.4751105994
  N        19.3688721342        5.2012663929        6.7576716855
  C        20.6866570780        5.4743336988        6.4904284979
  N         8.5535167914        5.2074762705       17.5805392520
  C         9.8713797628        5.4751221542       17.3080905220
  N         2.6896457043       17.5788330513        6.7619221179
  C         1.3721059745       17.3071501775        6.4915091351
  N        13.5154276319       17.5761446408       17.5761617553
  C        12.1972689189       17.3068542637       17.3068627877
  N        15.6571909305        3.0459743805        5.2012587236
  C        15.9263255631        1.7283267094        5.4722104887
  N        15.6673006214       13.8654933522       16.0181285106
  C        15.9367532043       12.5479434283       16.2878607839
  N        15.6680934830       19.7301087020       17.5743667693
  C        15.9355532780       21.0477739820       17.3025050242
  N        15.6619856068        8.9103856543        6.7578614520
  C        15.9328154585       10.2277998122        6.4888539451
  N         6.3980844279       19.7366746226        5.2082696032
  C         6.1280853863       21.0541806092        5.4784378994
  N         6.3987916403        8.9161720855       16.0227131006
  C         6.1302349931       10.2337303766       16.2934488014
  N         6.4013603150        3.0529384630       17.5834437501
  C         6.1346669080        1.7350783049       17.3115006429
  N         6.3976456967       13.8707108023        6.7634904589
  C         6.1282781963       12.5533681705        6.4927046948
  N         4.8486938177       16.0254176114        3.0521170361
  C         5.1203450730       16.2939821905        1.7346287332
  N         4.8448847833        5.2056989806       13.8716316104
  C         5.1139362954        5.4752484296       12.5538936588
  N        17.2203443232       16.0157055086       19.7303557876
  C        16.9495380513       16.2846201137       21.0479816208
  N        17.2155426178        5.2004709445        8.9099944826
  C        16.9475961705        5.4717614980       10.2275204127
  N         4.8429243737        6.7643730084       19.7362543099
  C         5.1125431038        6.4948468900       21.0539709300
  N         4.8449941265       17.5803428283        8.9166153392
  C         5.1155163472       17.3107002137       10.2340360606
  N        17.2116516611        6.7581890022        3.0463000486
  C        16.9414048497        6.4890780379        1.7286691739
  N        17.2216259313       17.5747987334       13.8651883229
  C        16.9518950167       17.3046038771       12.5477548618
  N         4.8399235082        3.0520878307        6.7623248969
  C         5.1108535010        1.7344071222        6.4937288592
  N         4.8487779678       13.8718298519       17.5817974100
  C         5.1174053594       12.5541774930       17.3115340188
  N        17.2150077744       19.7309166338        6.7578354029
  C        16.9432128435       21.0483258110        6.4889328147
  N        17.2183266614        8.9101600114       17.5768037500
  C        16.9502631559       10.2277026858       17.3056178576
  N         4.8509156408       19.7366318635       16.0246010625
  C         5.1215931723       21.0542606599       16.2934058433
  N         4.8413555592        8.9163043531        5.2064004697
  C         5.1121570313       10.2337649800        5.4756843591
  N        17.2179254314        3.0462200077       16.0147259340
  C        16.9482554580        1.7284743138       16.2841097591
  N        17.2193337929       13.8648826583        5.2024310478
  C        16.9494564824       12.5474805802        5.4726603540
  N         2.6946341116       16.0247187652       17.5811121909
  C         1.3767043397       16.2922571964       17.3083574294
  N        13.5108585715       16.0180155898        6.7567465601
  C        12.1929766339       16.2890182395        6.4876848912
  N        19.3740390937       16.0193556068        5.2016943721
  C        20.6916967873       16.2895006700        5.4734586986
  N         8.5559660759       16.0235029239       16.0235046914
  C         9.8742054949       16.2927106314       16.2927103422
  N        19.3722994042        6.7575749032       17.5764580560
  C        20.6904320049        6.4893133502       17.3058779317
  N         8.5500152330        6.7613242291        6.7613475407
  C         9.8674995322        6.4904955704        6.4905105469
  N         2.6859875082        6.7642680073        5.2080679840
  C         1.3681090255        6.4936321451        5.4775636427
  N        13.5109027524        6.7567270850       16.0180077371
  C        12.1930232788        6.4876800169       16.2890171307
  N        15.6617344783        5.2001197679       19.7297291503
  C        15.9285487555        5.4717068899       21.0476356445
  N        15.6646111638       16.0195593068        8.9105798160
  C        15.9353728805       16.2886266605       10.2279945477
  N        15.6649061638       17.5727773730        3.0456900795
  C        15.9339967776       17.3017468855        1.7281514218
  N        15.6652807391        6.7593372676       13.8653894686
  C        15.9344555979        6.4895504275       12.5478192557
  N         6.3941566765        5.2056481664        3.0522344463
  C         6.1261671163        5.4771648162        1.7346007152
  N         6.4014395169       16.0239578402       13.8713343349
  C         6.1316597967       16.2939982073       12.5538429092
  N         6.4046005946       17.5821985048       19.7369881635
  C         6.1361986822       17.3107712968       21.0545776943
  N         6.3952423585        6.7638382834        8.9159993477
  C         6.1269745995        6.4928192722       10.2334496998
  N        19.3723367661       17.5764666509        6.7575793454
  C        20.6904770077       17.3058758282        6.4893182514
  N         8.5581688671       17.5799411768       17.5799270718
  C         9.8756900251       17.3088217269       17.3088138655
  N         2.6859887259        5.2080526684        6.7642533379
  C         1.3681093731        5.4775545139        6.4936265759
  N        13.5107436944        5.2001815881       17.5742189027
  C        12.1929148341        5.4716698073       17.3051878200
  N         2.6946360260       17.5811022659       16.0247147741
  C         1.3767054498       17.3083513395       16.2922557631
  N        13.5107004358       17.5742334200        5.2001886129
  C        12.1928691473       17.3051885474        5.4716697989
  N        19.3740038100        5.2016987381       16.0193602202
  C        20.6916550579        5.4734539150       16.2895064454
  N         8.5482432019        5.2050204540        5.2050282785
  C         9.8662856813        5.4744250539        5.4744332847
  N         6.4045881860       19.7369868270       17.5822324041
  C         6.1362389904       21.0545736595       17.3107465685
  N         6.3952716610        8.9160054437        6.7638021871
  C         6.1269347777       10.2334604016        6.4928633049
  N         6.3942020529        3.0521997743        5.2057110539
  C         6.1261257601        1.7345636971        5.4771338557
  N         6.4013977176       13.8713643694       16.0238943033
  C         6.1317013616       12.5538752533       16.2940246018
  N        15.6649130362        3.0456986912       17.5727726248
  C        15.9339870088        1.7281619199       17.3017422302
  N        15.6652755358       13.8653752886        6.7593475231
  C        15.9344666253       12.5478024209        6.4895619627
  N        15.6617169752       19.7297658242        5.2001204629
  C        15.9285454180       21.0476740272        5.4717092145
  N        15.6646283529        8.9105363857       16.0195700584
  C        15.9353692084       10.2279491198       16.2886388604
  N        17.2150136292        6.7578242013       19.7308833259
  C        16.9432152099        6.4889321921       21.0482882866
  N        17.2183107430       17.5768147898        8.9101970744
  C        16.9502618649       17.3056107228       10.2277449949
  N         4.8398803081        6.7622655846        3.0521267212
  C         5.1108993310        6.4937589246        1.7344481004
  N         4.8488228717       17.5818637597       13.8717949820
  C         5.1173626929       17.3115115574       12.5541407885
  N        17.2179283777       16.0147182404        3.0462123068
  C        16.9482641914       16.2841141696        1.7284642233
  N        17.2193305672        5.2024354717       13.8648962048
  C        16.9494480312        5.4726510899       12.5474970815
  N         4.8509313847       16.0245643966       19.7366376448
  C         5.1215503914       16.2934286216       21.0542681032
  N         4.8413105104        5.2064519392        8.9162899009
  C         5.1121930551        5.4756490299       10.2337496123
  N        17.2203431199       19.7303665256       16.0157136851
  C        16.9495306017       21.0479943510       16.2846193908
  N        17.2155332800        8.9099757049        5.2004603292
  C        16.9475957592       10.2275002918        5.4717612254
  N         4.8486666142        3.0521107905       16.0254306905
  C         5.1203742463        1.7346226164       16.2939620368
  N         4.8449371173       13.8716455828        5.2056762235
  C         5.1139110787       12.5539080472        5.4752844429
  N        17.2116599821        3.0463386954        6.7581851382
  C        16.9414082174        1.7287112347        6.4890732998
  N        17.2216113293       13.8651440337       17.5748063199
  C        16.9518823158       12.5477077484       17.3046161030
  N         4.8429544733       19.7362206867        6.7643833547
  C         5.1124972895       21.0539353648        6.4948031410
  N         4.8449573132        8.9166481462       17.5803286609
  C         5.1155551545       10.2340692974       17.3107364670
  N        19.3688714857        6.7576700652        5.2012719150
  C        20.6866575912        6.4904288486        5.4743387112
  N         8.5536322574        6.7623945584       16.0227765833
  C         9.8714653648        6.4904955010       16.2912992569
  N         2.6895951700        6.7619361390       17.5788342725
  C         1.3720534602        6.4915123355       17.3071544668
  N        13.5070294239        6.7582704544        6.7582549657
  C        12.1888678519        6.4889957753        6.4889887785
  N         2.6918032586       16.0231600653        5.2048733813
  C         1.3735127572       16.2913227893        5.4751647491
  N        13.5134222037       16.0197171671       16.0197317439
  C        12.1958807617       16.2907716655       16.2907792114
  N        19.3768533612       16.0190228922       17.5755512234
  C        20.6948293453       16.2896123091       17.3057450862
  N         8.5536001761       16.0227742790        6.7623798012
  C         9.8714264352       16.2912929197        6.4904839069
  N         6.4013877109       17.5834142717        3.0529371962
  C         6.1346442352       17.3115162050        1.7350807628
  N         6.3975887403        6.7635352406       13.8707026663
  C         6.1282954735        6.4926746343       12.5533578081
  N         6.3980606228        5.2082424455       19.7367016519
  C         6.1281283607        5.4784782443       21.0542127092
  N         6.3988247138       16.0227464226        8.9161469736
  C         6.1302000073       16.2934165534       10.2337011913
  N        15.6680929030       17.5743588823       19.7300976332
  C        15.9355623593       17.3025026131       21.0477602252
  N        15.6619939289        6.7578703682        8.9104038027
  C        15.9328124981        6.4888555591       10.2278205534
  N        15.6571881216        5.2012587666        3.0459341606
  C        15.9263228621        5.4722088318        1.7282845333
  N        15.6673082564       16.0181278351       13.8655416187
  C        15.9367658521       16.2878544632       12.5479933262
 Zn        14.3769729511       14.7251567412       14.7251704983
 Cl        13.1425272629       13.4937686007       13.4938090389
 Zn        14.3668747417        3.9070976088        3.9070820599
 Cl        13.1305208886        2.6767678927        2.6767410657
 Zn         3.5585284513       14.7314158438        3.9096223598
 Cl         2.3259711654       13.4996560944        2.6765337471
 Zn         3.5584777700        3.9096004561       14.7313949707
 Cl         2.3259422882        2.6765001651       13.4996129714
 Zn         7.6890599548        8.0555912732       14.7285829807
 Cl         8.9217234743        9.2875956098       13.4960327898
 Zn         7.6895245709       18.8761745346        3.9158614887
 Cl         8.9240340287       20.1102992641        2.6869979085
 Zn        18.5050464303        8.0500798976        3.9057214302
 Cl        19.7372256072        9.2831097939        2.6739761569
 Zn        18.5114500891       18.8692006104       14.7244218152
 Cl        19.7448553430       20.0987712295       13.4901328613
 Zn         7.6890572746       14.7286063832        8.0555761736
 Cl         8.9216787048       13.4960185021        9.2875726682
 Zn         7.6895342426        3.9158279468       18.8761937560
 Cl         8.9241012208        2.6870251526       20.1103345742
 Zn        18.5114414597       14.7244115367       18.8691797806
 Cl        19.7448336907       13.4901347747       20.0987734952
 Zn        18.5050542744        3.9057268471        8.0501010048
 Cl        19.7372547361        2.6739853121        9.2831155605
 Zn        14.3719625097        8.0518588167        8.0518657421
 Cl        13.1390469468        9.2840587252        9.2840412355
 Zn        14.3807492927       18.8701197363       18.8701174319
 Cl        13.1469257539       20.1018642919       20.1018763269
 Zn         3.5533064964        8.0558882522       18.8729215517
 Cl         2.3185920415        9.2902506693       20.1012004977
 Zn         3.5533623649       18.8729010971        8.0558728502
 Cl         2.3185901993       20.1011637905        9.2901816185
 Zn        14.3750204077       14.7250887939        8.0520272158
 Cl        13.1410960869       13.4943650356        9.2846835390
 Zn        14.3755109690        3.9048760640       18.8676108788
 Cl        13.1400803460        2.6715891419       20.0962621929
 Zn         3.5602110415       14.7317080189       18.8753384921
 Cl         2.3269472532       13.4997692832       20.1075920116
 Zn         3.5506989819        3.9126835773        8.0556585943
 Cl         2.3175549351        2.6825714554        9.2898047483
 Zn         7.6874311986        8.0552409989        8.0552342978
 Cl         8.9216882111        9.2866617576        9.2867120548
 Zn         7.6945893392       18.8743600428       18.8743721696
 Cl         8.9308126104       20.1049741112       20.1049583221
 Zn        18.5073241790        8.0501096523       18.8715742018
 Cl        19.7390385313        9.2829433426       20.1041611798
 Zn        18.5073363860       18.8715914893        8.0501357372
 Cl        19.7390713865       20.1041872042        9.2829568409
 Zn        14.3750719133        8.0519978378       14.7251140623
 Cl        13.1411174510        9.2846053847       13.4943895571
 Zn        14.3754655545       18.8676451768        3.9048584567
 Cl        13.1400313859       20.0963057241        2.6715676475
 Zn         3.5506914454        8.0556635662        3.9126832912
 Cl         2.3175326712        9.2898292311        2.6826036048
 Zn         3.5602188652       18.8753401487       14.7317177742
 Cl         2.3269800500       20.1075756694       13.4997369479
 Zn         7.6907622075       14.7294749050       14.7294493934
 Cl         8.9235419716       13.4972032750       13.4972104475
 Zn         7.6844922985        3.9110564479        3.9110837114
 Cl         8.9173506554        2.6789801233        2.6789979773
 Zn        18.5096549438       14.7240565443        3.9081210569
 Cl        19.7436948140       13.4893312430        2.6797199514
 Zn        18.5096243210        3.9081515849       14.7240843297
 Cl        19.7436389592        2.6797376641       13.4893646902
 Zn         5.6232780761        5.9892790617       16.8071008090
 Zn        16.4457036562       16.7961480508       16.7961873878
 Zn        16.4398552118        5.9783176763        5.9783010754
 Zn         5.6233145220       16.8070934120        5.9892449722
 Zn         5.6200174045        5.9885391153        5.9885592314
 Zn        16.4432119685       16.7961879325        5.9787923341
 Zn         5.6262887672       16.8078711283       16.8078487138
 Zn        16.4432181381        5.9787728188       16.7961742320
  N         3.4369762227        5.9834111755       16.8019936127
  N        14.2524828935        5.9797014404        5.9796840446
  N        18.6306196388       16.7971165040       16.7971140958
  N         7.8072410424       16.8028106094        5.9861032553
  N        18.6225977150        5.9779198985        5.9779262501
  N         7.8072674151        5.9861143280       16.8028197055
  N         3.4370253854       16.8019991224        5.9833969249
  N        14.2606998043       16.7974943711       16.7975147577
  N        16.4349020340        3.7927489440        5.9791442225
  N        16.4444768799       14.6119111543       16.7966388245
  N        16.4451485349       18.9835068274       16.7958963062
  N        16.4380169537        8.1635324680        5.9785629547
  N         5.6206927383       18.9899468002        5.9862477858
  N         5.6213989698        8.1700174303       16.8012967265
  N         5.6236211601        3.7993496801       16.8054056376
  N         5.6213964143       14.6180149888        5.9849187742
  N         5.6236904624       16.8053505018        3.7993483220
  N         5.6212855401        5.9850019679       14.6180061451
  N        16.4451438537       16.7958851642       18.9834982229
  N        16.4380313704        5.9785757161        8.1635496002
  N         5.6206063363        5.9861773214       18.9899755805
  N         5.6214927299       16.8013701346        8.1699884101
  N        16.4348938285        5.9791456623        3.7927101428
  N        16.4444886348       16.7966378280       14.6119577092
  N         5.6163273071        3.7989469183        5.9833078082
  N         5.6254262388       14.6184444078       16.8030044225
  N        16.4397802197       18.9836188464        5.9781361563
  N        16.4407725674        8.1637115269       16.7987484793
  N         5.6270882803       18.9903417565       16.8042048120
  N         5.6176310803        8.1697281024        5.9856577445
  N        16.4416674574        3.7926092241       16.7942793882
  N        16.4424323608       14.6117407677        5.9807561571
  N         3.4409174448       16.8043847364       16.8043884712
  N        14.2570815934       16.7956592135        5.9778939446
  N        18.6269450052       16.7980613875        5.9787262910
  N         7.8108120189       16.8022393265       16.8022319420
  N        18.6269106288        5.9787298808       16.7980573891
  N         7.8028097747        5.9835736680        5.9835914876
  N         3.4323716075        5.9863915479        5.9863906871
  N        14.2571216213        5.9778745586       16.7956420759
  N        16.4397937228        5.9781311577       18.9835857218
  N        16.4407503126       16.7987494394        8.1637499304
  N        16.4416640884       16.7942764493        3.7926034476
  N        16.4424340976        5.9807541184       14.6117524013
  N         5.6162315794        5.9831936751        3.7989836914
  N         5.6255193294       16.8031218709       14.6184113111
  N         5.6271339632       16.8041355788       18.9903437609
  N         5.6175504460        5.9857508955        8.1697194706
  C        11.0341700199       15.7415530648       15.7415553301
  H        11.0328715835       14.9660064817       14.9660058122
  C        11.0262985471        4.9234454434        4.9234450626
  H        11.0253346577        4.1478978057        4.1478911493
  C         0.2134419390       15.7399209093        4.9245019482
  H         0.2148050432       14.9642004455        4.1491405029
  C         0.2133992606        4.9244975997       15.7399251504
  H         0.2147531444        4.1491402555       14.9642002582
  C        11.0323711684        7.0389766620       15.7396413667
  H        11.0326268236        7.8143600525       14.9639302052
  C        11.0319930594       17.8569106040        4.9232809721
  H        11.0318022030       18.6328006215        4.1480877380
  C         0.2074173138        7.0426497832        4.9261183005
  H         0.2075140835        7.8183266961        4.1507074500
  C         0.2157827044       17.8567690699       15.7404398910
  H         0.2159264526       18.6321942896       14.9647734604
  C        11.0323257975       15.7396366750        7.0389784231
  H        11.0325434140       14.9639317075        7.8143672729
  C        11.0320362727        4.9232922528       17.8569163602
  H        11.0318783607        4.1480976166       18.6328058054
  C         0.2157793203       15.7404459015       17.8567760957
  H         0.2159194501       14.9647821587       18.6322057155
  C         0.2074207327        4.9261056741        7.0426437644
  H         0.2075174374        4.1506913627        7.8183160567
  C        11.0289136140        7.0399921630        7.0399942538
  H        11.0299746441        7.8155476562        7.8155430841
  C        11.0373914711       17.8579997947       17.8579971011
  H        11.0388729942       18.6335413725       18.6335348304
  C         0.2104684268        7.0408886520       17.8563616057
  H         0.2093560260        7.8165700758       18.6317667793
  C         0.2105161292       17.8563544627        7.0408834628
  H         0.2094246938       18.6317674733        7.8165589075
  C        15.3858999529       11.3880911492       15.7371001881
  H        14.6104436618       11.3882913213       14.9614058652
  C        15.3770180268        0.5676038198        4.9213753805
  H        14.6019471150        0.5669715058        4.1453191172
  C         4.5630114597       11.3941746555        4.9242561185
  H         3.7875700701       11.3946247681        4.1485768670
  C         4.5715736683        0.5743148666       15.7420433744
  H         3.7965795599        0.5741433123       14.9658953335
  C        15.3835170321       11.3880159181        7.0404089889
  H        14.6080972876       11.3883331480        7.8161472762
  C        15.3847511999        0.5677747358       17.8531521526
  H        14.6100909473        0.5674979090       18.6296218948
  C         4.5665343789       11.3943817290       17.8623826587
  H         3.7914472484       11.3947002350       18.6384123157
  C         4.5614831516        0.5740549741        7.0451524223
  H         3.7858402758        0.5738683803        7.8206286137
  C         6.6807466317       11.3936149496       15.7422895809
  H         7.4548744872       11.3932836218       14.9652574057
  C         6.6774535392        0.5745379424        4.9271127607
  H         7.4522648785        0.5746511288        4.1507803801
  C        17.4986497640       11.3872648019        4.9211298775
  H        18.2731238661       11.3869319037        4.1444900752
  C        17.4980857886        0.5684110968       15.7325074584
  H        18.2722235277        0.5686937972       14.9555111148
  C         6.6774836926       11.3931612648        7.0441864003
  H         7.4514425757       11.3927662021        7.8213726733
  C         6.6855904830        0.5750468330       17.8620362412
  H         7.4598255291        0.5752783150       18.6389297125
  C        17.5013005822       11.3875637609       17.8561260328
  H        18.2758867272       11.3873863660       18.6326668656
  C        17.4918104351        0.5688980639        7.0404733928
  H        18.2665198382        0.5695300932        7.8169019142
  C        15.3859080956       15.7370912460       11.3881435105
  H        14.6104467748       14.9614047937       11.3883588674
  C        15.3770206485        4.9213723204        0.5675606792
  H        14.6019511160        4.1453118470        0.5669163487
  C         4.5715377879       15.7420675613        0.5743235186
  H         3.7965875555       14.9658711632        0.5741575626
  C         4.5630383592        4.9242189054       11.3941570989
  H         3.7875291723        4.1486114227       11.3946008155
  C         6.6807092072       15.7422609170       11.3935875158
  H         7.4549066187       14.9652977372       11.3932401558
  C         6.6774944883        4.9271498363        0.5745706972
  H         7.4522396323        4.1507515227        0.5747026030
  C        17.4980968029       15.7325104923        0.5683988962
  H        18.2722324987       14.9555139655        0.5686622028
  C        17.4986470267        4.9211266978       11.3872841720
  H        18.2731293737        4.1444937102       11.3869680625
  C        15.3835099059        7.0404028455       11.3880340786
  H        14.6080943637        7.8161486572       11.3883654741
  C        15.3847609745       17.8531555446        0.5677631736
  H        14.6101008493       18.6296215480        0.5674746966
  C         4.5615295593        7.0451920845        0.5740962437
  H         3.7858209536        7.8205980088        0.5739212689
  C         4.5664951599       17.8623515524       11.3943423374
  H         3.7914753142       18.6384531773       11.3946523709
  C         6.6775107700        7.0441538031       11.3931539225
  H         7.4513946596        7.8214125551       11.3927410930
  C         6.6855608350       17.8620521061        0.5750477645
  H         7.4598469705       18.6388950666        0.5753006668
  C        17.4918066553        7.0404755198        0.5688612832
  H        18.2665164356        7.8169069931        0.5694825641
  C        17.5013058836       17.8561179948       11.3876040688
  H        18.2758840811       18.6326646901       11.3874364437
 Xe        20.4933748600       10.6346338034       10.6346341756
