     409
 i =     150, E =    -5183.7471498049
  N         2.8797457692        5.2007164324       16.0057778143
  C         1.5618139300        5.4706990192       16.2721649810
  N        13.7102726997        5.1537941780        5.1537932518
  C        12.3879587240        5.4126345295        5.4126359082
  N        19.5656386244       17.5501782918       15.9953556809
  C        20.8831062665       17.2849023405       16.2690347192
  N         8.7493684699       17.6330617935        5.1319139310
  C        10.0660585356       17.3546048493        5.4040871954
  N        19.5615877154        5.1999872012        6.7557595961
  C        20.8788860079        5.4718601346        6.4877854065
  N         8.7493676425        5.1319131064       17.6330652336
  C        10.0660577360        5.4040863122       17.3546094712
  N         2.8760961318       17.5609372237        6.7575476848
  C         1.5594131852       17.2874794480        6.4873711275
  N        13.7151060775       17.5879620221       17.5879616949
  C        12.3929026230       17.3291230139       17.3291225844
  N        15.8856399105        3.0274232109        5.1828714066
  C        16.1525366140        1.7112966788        5.4591956082
  N        15.8308604685       13.8534238004       16.0093284316
  C        16.1009748300       12.5343253465       16.2750375807
  N        15.8833307357       19.7171924422       17.5652225368
  C        16.1518208865       21.0335039770       17.2916604992
  N        15.8287532216        8.8916027807        6.7313743726
  C        16.1001179473       10.2110717904        6.4661679611
  N         6.5529798094       19.7281654029        5.1803669477
  C         6.2858900213       21.0431334832        5.4583226311
  N         6.6013229954        8.8963739296       16.0343711662
  C         6.3341360108       10.2177659479       16.2960796383
  N         6.5574331158        3.0347100998       17.5803867984
  C         6.2924974060        1.7193802353       17.3021128443
  N         6.6128739599       13.8629847000        6.7430569892
  C         6.3423362441       12.5427703172        6.4774594527
  N         5.0223236230       16.0048218038        3.0386973356
  C         5.2898375850       16.2732321115        1.7206048606
  N         5.0409131720        5.2035811051       13.8603350367
  C         5.3147305579        5.4728636233       12.5431347292
  N        17.4230901241       15.9945133902       19.7136461601
  C        17.1577632625       16.2658848849       21.0323683237
  N        17.4000356404        5.1910111401        8.8957005720
  C        17.1260639119        5.4601055735       10.2121757927
  N         5.0172591158        6.7565785583       19.7234853604
  C         5.2836782954        6.4877992627       21.0414579284
  N         5.0298639440       17.5726695152        8.9068039938
  C         5.3064157924       17.3003170294       10.2225195378
  N        17.4244605142        6.7549765189        3.0315526057
  C        17.1577061341        6.4857755178        1.7129175699
  N        17.4023206726       17.5498991660       13.8492836884
  C        17.1269136385       17.2811662060       12.5327235123
  N         5.0152929708        3.0384096991        6.7566226368
  C         5.2822019242        1.7202896111        6.4881028992
  N         5.0363019112       13.8606742373       17.5654707390
  C         5.3097282259       12.5436449118       17.2965704636
  N        17.4232048455       19.7126840708        6.7591044932
  C        17.1575441200       21.0315011466        6.4882277935
  N        17.3989699151        8.8964174187       17.5474380724
  C        17.1244971059       10.2128849850       17.2793756872
  N         5.0241987503       19.7235695966       16.0050665199
  C         5.2912765400       21.0415378329       16.2737205958
  N         5.0350485955        8.9055103049        5.1954495007
  C         5.3117938504       10.2212562783        5.4686260112
  N        17.4237792965        3.0320988012       15.9979925786
  C        17.1575776371        1.7136066162       16.2680722049
  N        17.4038007473       13.8489504792        5.1895318427
  C        17.1287093824       12.5323286633        5.4588075360
  N         2.8798803991       16.0085862122       17.5641711275
  C         1.5625926519       16.2756086082       17.2915287705
  N        13.6889401884       16.0295612999        6.7107000600
  C        12.3756324501       16.3138642384        6.4315189206
  N        19.5652623725       15.9949551839        5.1982142690
  C        20.8821296996       16.2665914408        5.4691083581
  N         8.7380081433       16.0691433140       16.0691406581
  C        10.0585221257       16.3317798980       16.3317782018
  N        19.5617904673        6.7559707896       17.5477359197
  C        20.8797289922        6.4863397289       17.2811287857
  N         8.7348424428        6.6746234113        6.6746234667
  C        10.0549604689        6.4112789775        6.4112797218
  N         2.8759744988        6.7593433385        5.2030285828
  C         1.5586777808        6.4895142008        5.4734690335
  N        13.6889398671        6.7106982364       16.0295641701
  C        12.3756324843        6.4315168452       16.3138688546
  N        15.8845057102        5.1874606747       19.7167737200
  C        16.1523596051        5.4617583871       21.0328813434
  N        15.8279130243       16.0069733297        8.8924452225
  C        16.0986613586       16.2732373969       10.2118056709
  N        15.8831784354       17.5683664715        3.0287938378
  C        16.1513704441       17.2936701367        1.7124024060
  N        15.8320488201        6.7300054713       13.8529069869
  C        16.1026527490        6.4648646961       12.5337343105
  N         6.5490888257        5.1790669349        3.0337433436
  C         6.2836833646        5.4580633027        1.7188769568
  N         6.6072548605       16.0257584255       13.8631628381
  C         6.3370504388       16.2918206099       12.5431401605
  N         6.5617546289       17.5787703591       19.7275823458
  C         6.2948879344       17.3018544181       21.0430298765
  N         6.6082339580        6.7326941210        8.8946138445
  C         6.3400425468        6.4723619359       10.2161868731
  N        19.5617932499       17.5477335874        6.7559694140
  C        20.8797322867       17.2811262545        6.4863390438
  N         8.7530455600       17.6233052035       17.6233021815
  C        10.0695026969       17.3477235077       17.3477214990
  N         2.8759752972        5.2030295571        6.7593438231
  C         1.5586781115        5.4734692394        6.4895150079
  N        13.7120682044        5.1584520088       17.5895811803
  C        12.3897674101        5.4183309101       17.3320958503
  N         2.8798810603       17.5641668005       16.0085901961
  C         1.5625918930       17.2915257646       16.2756117677
  N        13.7120673847       17.5895763287        5.1584516547
  C        12.3897670744       17.3320902842        5.4183319201
  N        19.5652595826        5.1982135619       15.9949594110
  C        20.8821268108        5.4691080289       16.2665952724
  N         8.7469625344        5.1208545410        5.1208554164
  C        10.0640239104        5.3954266240        5.3954283413
  N         6.5617553788       19.7275816256       17.5787691161
  C         6.2948882265       21.0430278307       17.3018520605
  N         6.6082306564        8.8946118520        6.7326925010
  C         6.3400338746       10.2161848237        6.4723673121
  N         6.5490879182        3.0337435591        5.1790650509
  C         6.2836827954        1.7188773444        5.4580617756
  N         6.6072524360       13.8631623409       16.0257605086
  C         6.3370497134       12.5431383350       16.2918243316
  N        15.8831775202        3.0287948015       17.5683676802
  C        16.1513680811        1.7124030017       17.2936694368
  N        15.8320481581       13.8529073676        6.7300065349
  C        16.1026509555       12.5337348710        6.4648653863
  N        15.8845013964       19.7167738152        5.1874613315
  C        16.1523561516       21.0328811382        5.4617587056
  N        15.8279118101        8.8924447086       16.0069734240
  C        16.0986585690       10.2118051673       16.2732389368
  N        17.4232058680        6.7591069085       19.7126850570
  C        17.1575458368        6.4882292067       21.0315014707
  N        17.3989712107       17.5474373523        8.8964171005
  C        17.1245001214       17.2793737946       10.2128846709
  N         5.0152913494        6.7566219911        3.0384090983
  C         5.2822008675        6.4881028474        1.7202893868
  N         5.0363022644       17.5654663935       13.8606748134
  C         5.3097275650       17.2965653025       12.5436441848
  N        17.4237814740       15.9979921232        3.0320973280
  C        17.1575806579       16.2680732408        1.7136044411
  N        17.4038024075        5.1895314885       13.8489494174
  C        17.1287113752        5.4588071409       12.5323277836
  N         5.0241990849       16.0050675112       19.7235712430
  C         5.2912769796       16.2737223868       21.0415380750
  N         5.0350516879        5.1954511802        8.9055109416
  C         5.3118022189        5.4686206386       10.2212575355
  N        17.4230888748       19.7136485331       15.9945099684
  C        17.1577606907       21.0323698452       16.2658814148
  N        17.4000348396        8.8957025226        5.1910072108
  C        17.1260625149       10.2121775372        5.4601028174
  N         5.0223196111        3.0386965497       16.0048236272
  C         5.2898355116        1.7206046589       16.2732324021
  N         5.0409144302       13.8603337272        5.2035805598
  C         5.3147242929       12.5431325794        5.4728694618
  N        17.4244592578        3.0315525931        6.7549776993
  C        17.1577044072        1.7129177297        6.4857763482
  N        17.4023179312       13.8492842647       17.5498997436
  C        17.1269102804       12.5327235191       17.2811684645
  N         5.0172606764       19.7234852104        6.7565798965
  C         5.2836795192       21.0414582263        6.4877998937
  N         5.0298632827        8.9068031540       17.5726722069
  C         5.3064159750       10.2225183502       17.3003214652
  N        19.5615877849        6.7557591966        5.1999876489
  C        20.8788851435        6.4877843681        5.4718606643
  N         8.7352349272        6.6816633408       16.0745004483
  C        10.0556505297        6.4173898623       16.3360544622
  N         2.8760930715        6.7575471281       17.5609395717
  C         1.5594092328        6.4873715507       17.2874823906
  N        13.6881192366        6.7096015704        6.7096007612
  C        12.3746683395        6.4283263852        6.4283271038
  N         2.8797495115       16.0057749897        5.2007169392
  C         1.5618167666       16.2721617378        5.4706990171
  N        13.6915660684       16.0314277668       16.0314279432
  C        12.3784325304       16.3133689433       16.3133689798
  N        19.5656371182       15.9953559753       17.5501761222
  C        20.8831067703       16.2690336429       17.2849024677
  N         8.7352347896       16.0744960390        6.6816629031
  C        10.0556500539       16.3360495819        6.4173903211
  N         6.5574360786       17.5803861058        3.0347110407
  C         6.2924985636       17.3021132806        1.7193819769
  N         6.6128740842        6.7430563826       13.8629874239
  C         6.3423433001        6.4774531082       12.5427718727
  N         6.5529789464        5.1803665717       19.7281658233
  C         6.2858896461        5.4583229041       21.0431341470
  N         6.6013246776       16.0343691650        8.8963748883
  C         6.3341367521       16.2960760447       10.2177664440
  N        15.8833325206       17.5652262414       19.7171915691
  C        16.1518236281       17.2916639187       21.0335022580
  N        15.8287548163        6.7313792147        8.8916027119
  C        16.1001198409        6.4661710591       10.2110714129
  N        15.8856411214        5.1828710692        3.0274218458
  C        16.1525385722        5.4591945661        1.7112956205
  N        15.8308622489       16.0093286172       13.8534241191
  C        16.1009776788       16.2750357644       12.5343251890
 Zn        14.5348047543       14.7270122772       14.7270108698
 Cl        13.2994315925       13.4961672825       13.4961697306
 Zn        14.6022668998        3.8759677156        3.8759616276
 Cl        13.3927632920        2.6312902342        2.6312973748
 Zn         3.7391563614       14.7129693530        3.9085161963
 Cl         2.5133063624       13.4613098279        2.6894692145
 Zn         3.7391533163        3.9085170733       14.7129707339
 Cl         2.5133012094        2.6894690403       13.4613134197
 Zn         7.8970902372        7.9864113879       14.7911290960
 Cl         9.3056145052        9.1773516938       13.7318097895
 Zn         7.8444506077       18.9024103482        3.8576687261
 Cl         9.0079534648       20.1694514023        2.5956603203
 Zn        18.7070934027        8.0498558809        3.9033255346
 Cl        19.9448218714        9.2888525318        2.6835225511
 Zn        18.7065511525       18.8372444133       14.7033929812
 Cl        19.9421548905       20.0602829399       13.4638276369
 Zn         7.8970900152       14.7911259262        7.9864100721
 Cl         9.3056183380       13.7318061839        9.1773448791
 Zn         7.8444476057        3.8576670377       18.9024115549
 Cl         9.0079475922        2.5956571692       20.1694529310
 Zn        18.7065484629       14.7033936541       18.8372421937
 Cl        19.9421566300       13.4638341259       20.0602815742
 Zn        18.7070924381        3.9033253642        8.0498550954
 Cl        19.9448221576        2.6835360448        9.2888638303
 Zn        14.5335001475        8.0103938681        8.0103925442
 Cl        13.2958344251        9.2408999383        9.2408870009
 Zn        14.5999053721       18.8723034086       18.8723024462
 Cl        13.3866366343       20.1145369678       20.1145357263
 Zn         3.7307912953        8.0522443310       18.8596372003
 Cl         2.4959925482        9.2881876353       20.0851551413
 Zn         3.7307923322       18.8596377770        8.0522462804
 Cl         2.4959908999       20.0851507822        9.2881928063
 Zn        14.5344181732       14.7248339558        8.0101516986
 Cl        13.2989323946       13.4912116667        9.2389810826
 Zn        14.6001787870        3.8821731908       18.8748812927
 Cl        13.3886355196        2.6389740486       20.1186333387
 Zn         3.7366181365       14.7145685355       18.8561086402
 Cl         2.5080731720       13.4722845879       20.0822283574
 Zn         3.7330035067        3.9055148154        8.0532735274
 Cl         2.5016208971        2.6853403929        9.2977252117
 Zn         7.8992488418        7.9660381082        7.9660369097
 Cl         9.3130890321        9.0903109872        9.0902843064
 Zn         7.8506211554       18.8945489912       18.8945501400
 Cl         9.0200007521       20.1571025611       20.1571022320
 Zn        18.7048776761        8.0531542265       18.8347969097
 Cl        19.9408964661        9.2925306868       20.0568860789
 Zn        18.7048778625       18.8347945071        8.0531514351
 Cl        19.9408944733       20.0568873730        9.2925261397
 Zn        14.5344142144        8.0101507083       14.7248336720
 Cl        13.2989289383        9.2389780415       13.4912074918
 Zn        14.6001773145       18.8748796694        3.8821735144
 Cl        13.3886364844       20.1186331483        2.6389732667
 Zn         3.7330016356        8.0532733771        3.9055124201
 Cl         2.5016155101        9.2977198390        2.6853361737
 Zn         3.7366177967       18.8561002167       14.7145693760
 Cl         2.5080715684       20.0822212923       13.4722886733
 Zn         7.8963377377       14.7755443881       14.7755471915
 Cl         9.2984353128       13.6447112037       13.6447099552
 Zn         7.8377819308        3.8506070995        3.8506065288
 Cl         8.9908562859        2.5818630493        2.5818643859
 Zn        18.7085591679       14.7061986678        3.9016559365
 Cl        19.9459859991       13.4678549559        2.6801143135
 Zn        18.7085576568        3.9016563974       14.7062001951
 Cl        19.9459848894        2.6801108762       13.4678615754
 Zn         5.8023033500        5.9558068814       16.8142197004
 Zn        16.6286036469       16.7785733333       16.7785714065
 Zn        16.6296159833        5.9589199735        5.9589195346
 Zn         5.8023029483       16.8142169561        5.9558064064
 Zn         5.7985553053        5.9516729628        5.9516714832
 Zn        16.6286576929       16.7781566194        5.9598288389
 Zn         5.8075782519       16.8094884510       16.8094838147
 Zn        16.6286628309        5.9598297201       16.7781570754
  N         3.6242737563        5.9791598964       16.7850502753
  N        14.4455544244        5.9373766041        5.9373745479
  N        18.8187968460       16.7704801056       16.7704783248
  N         7.9957803845       16.8567922759        5.9064383893
  N        18.8150208029        5.9768255982        5.9768259890
  N         7.9957802476        5.9064382848       16.8567957983
  N         3.6242770462       16.7850477995        5.9791607604
  N        14.4494394742       16.8037944529       16.8037943786
  N        16.6546504395        3.7760948576        5.9667707348
  N        16.6180370802       14.5975619702       16.7802901535
  N        16.6518650991       18.9685717001       16.7807619130
  N        16.6154683247        8.1471650372        5.9599571655
  N         5.7852329140       18.9800986549        5.9655286042
  N         5.8133070849        8.1548240369       16.8067460466
  N         5.7892468852        3.7830052688       16.7959045073
  N         5.8256232215       14.6086641825        5.9714445073
  N         5.7892511455       16.7959023677        3.7830062132
  N         5.8256183576        5.9714482004       14.6086659668
  N        16.6518658595       16.7807654783       18.9685699439
  N        16.6154694836        5.9599620112        8.1471640603
  N         5.7852314581        5.9655275260       18.9800991206
  N         5.8133091004       16.8067442924        8.1548249133
  N        16.6546514397        5.9667701431        3.7760943645
  N        16.6180388626       16.7802911772       14.5975617079
  N         5.7817884115        3.7822031483        5.9642954635
  N         5.8208709576       14.6088344963       16.7970406789
  N        16.6526880586       18.9678508301        5.9718935317
  N        16.6149829300        8.1479150148       16.7778844233
  N         5.7928826874       18.9796531802       16.7945967575
  N         5.8190993875        8.1532824852        5.9601876103
  N        16.6525928219        3.7770182905       16.7843780012
  N        16.6189610929       14.5970880418        5.9587429774
  N         3.6265003187       16.7876007454       16.7876050347
  N        14.4467586173       16.8027964568        5.9394630064
  N        18.8167956624       16.7700621397        5.9768484350
  N         7.9991064955       16.8481647122       16.8481613316
  N        18.8167932242        5.9768487870       16.7700652879
  N         7.9941681820        5.8965764558        5.8965763864
  N         3.6221890535        5.9809892253        5.9809883908
  N        14.4467592278        5.9394625524       16.8027998576
  N        16.6526908281        5.9718947471       18.9678512768
  N        16.6149829738       16.7778846026        8.1479150424
  N        16.6525934355       16.7843764527        3.7770169777
  N        16.6189620518        5.9587419987       14.5970873721
  N         5.7817877758        5.9642960675        3.7822026380
  N         5.8208732854       16.7970381625       14.6088348198
  N         5.7928824937       16.7945973273       18.9796539077
  N         5.8190988952        5.9601932079        8.1532835201
  C        11.2105089015       15.7728491244       15.7728486008
  H        11.1927140955       14.9974809860       14.9974805495
  C        11.2339382319        4.8538642603        4.8538671185
  H        11.2489454703        4.0786137337        4.0786181024
  C         0.4035954733       15.7189408350        4.9189541646
  H         0.4057903425       14.9434738125        4.1432847471
  C         0.4035915910        4.9189533997       15.7189448544
  H         0.4057862243        4.1432833195       14.9434788037
  C        11.2078373610        6.9729241231       15.7741412586
  H        11.1901802089        7.7485901929       14.9991174154
  C        11.2364189607       17.8950052807        4.8625124948
  H        11.2522428160       18.6724204207        4.0893789541
  C         0.3987119599        7.0397204336        4.9224649289
  H         0.3982995250        7.8157555592        4.1473495813
  C         0.4028207406       17.8390617632       15.7216462832
  H         0.4025195435       18.6141579802       14.9455835491
  C        11.2078370910       15.7741361614        6.9729260968
  H        11.1901772025       14.9991126540        7.7485923426
  C        11.2364188897        4.8625114001       17.8950109825
  H        11.2522418349        4.0893780691       18.6724262671
  C         0.4028177266       15.7216439261       17.8390628068
  H         0.4025147877       14.9455805038       18.6141585237
  C         0.3987120575        4.9224654742        7.0397218048
  H         0.3983002725        4.1473507431        7.8157580249
  C        11.2075260206        6.9695048467        6.9695052500
  H        11.1905795555        7.7448625929        7.7448612365
  C        11.2398056487       17.8886462052       17.8886447740
  H        11.2554352798       18.6639380630       18.6639359580
  C         0.3978294519        7.0382020681       17.8343126550
  H         0.3948616548        7.8147329797       18.6089538277
  C         0.3978324149       17.8343099944        7.0382011008
  H         0.3948669176       18.6089509477        7.8147320347
  C        15.5442574491       11.3739154144       15.7291804900
  H        14.7620335992       11.3757328593       14.9604136288
  C        15.6070436677        0.5515670179        4.9044469634
  H        14.8392662243        0.5506524717        4.1210159435
  C         4.7576342151       11.3838377296        4.9271881583
  H         3.9745082520       11.3865981082        4.1590039988
  C         4.7469420231        0.5606666932       15.7149918916
  H         3.9803436156        0.5596404113       14.9307598144
  C        15.5459465142       11.3732017152        7.0106514387
  H        14.7635971236       11.3749857170        7.7793899358
  C        15.6060297444        0.5524093079       17.8483585533
  H        14.8375241073        0.5514550905       18.6310113611
  C         4.7527018510       11.3847129993       17.8427789335
  H         3.9704461809       11.3875412491       18.6117203970
  C         4.7398116794        0.5605154935        7.0471444634
  H         3.9738785154        0.5595770260        7.8320826072
  C         6.8935929712       11.3788204137       15.7526557155
  H         7.6859982591       11.3745295776       14.9950771006
  C         6.8287035722        0.5613807480        4.8996212105
  H         7.5917025941        0.5621368856        4.1112579653
  C        17.6829977331       11.3713887164        4.9145928526
  H        18.4657851288       11.3697223052        4.1462847935
  C        17.7028167426        0.5534799790       15.7110628046
  H        18.4711412864        0.5544651077       14.9284673492
  C         6.8982176011       11.3777382605        7.0163463086
  H         7.6882575773       11.3731133067        7.7759231115
  C         6.8384043478        0.5616587655       17.8597231234
  H         7.6026819056        0.5625548317       18.6468612112
  C        17.6812372374       11.3718975158       17.8255057102
  H        18.4640061902       11.3702218265       18.5939377449
  C        17.7021002311        0.5526761958        7.0435031782
  H        18.4698631139        0.5535577246        7.8265902659
  C        15.5442602850       15.7291786407       11.3739154915
  H        14.7620356103       14.9604123100       11.3757308880
  C        15.6070469150        4.9044452519        0.5515654572
  H        14.8392704606        4.1210130066        0.5506476487
  C         4.7469434104       15.7149921559        0.5606684688
  H         3.9803461069       14.9307591472        0.5596414145
  C         4.7576421734        4.9271821962       11.3838377232
  H         3.9745122709        4.1590021204       11.3865960333
  C         6.8935946521       15.7526519984       11.3788207975
  H         7.6860007539       14.9950749819       11.3745311982
  C         6.8287043188        4.8996227858        0.5613807709
  H         7.5917039852        4.1112598898        0.5621366714
  C        17.7028197631       15.7110657214        0.5534772847
  H        18.4711447216       14.9284701315        0.5544591246
  C        17.6829998021        4.9145937024       11.3713862297
  H        18.4657873731        4.1462859638       11.3697160993
  C        15.5459489361        7.0106525052       11.3732025067
  H        14.7636002235        7.7793915610       11.3749904312
  C        15.6060324106       17.8483609029        0.5524086201
  H        14.8375270380       18.6310134505        0.5514543426
  C         4.7398092353        7.0471436241        0.5605152063
  H         3.9738744970        7.8320799760        0.5595755835
  C         4.7527008261       17.8427728728       11.3847141826
  H         3.9704444967       18.6117144433       11.3875423581
  C         6.8982260315        7.0163390906       11.3777410489
  H         7.6882628940        7.7759195906       11.3731165813
  C         6.8384040431       17.8597250344        0.5616592051
  H         7.6026816366       18.6468631848        0.5625575238
  C        17.7021016812        7.0435039763        0.5526776283
  H        18.4698641345        7.8265914489        0.5535630399
  C        17.6812409652       17.8255031190       11.3718974064
  H        18.4640097053       18.5939350723       11.3702226941
 Xe        10.5326751925       11.3626635029       11.3626644751
