     409
 i =     150, E =    -5183.7517347159
  N         2.6962746828        5.2051092746       16.0232167188
  C         1.3780578945        5.4754603541       16.2918023198
  N        13.5122779452        5.2027505018        5.2027489260
  C        12.1945640327        5.4734641548        5.4734627888
  N        19.3807898466       17.5765150731       16.0200225403
  C        20.6987499887       17.3063422465       16.2902212533
  N         8.5583494704       17.5803810763        5.2073280413
  C         9.8762263688       17.3081525608        5.4752294608
  N        19.3748234220        5.2019205785        6.7583721963
  C        20.6926864557        5.4745783932        6.4906828847
  N         8.5583465569        5.2073316767       17.5803816482
  C         9.8762257840        5.4752314401       17.3081539318
  N         2.6946198462       17.5790901031        6.7620803908
  C         1.3769740873       17.3076797828        6.4917827579
  N        13.5193839266       17.5766628595       17.5766657126
  C        12.2013338958       17.3071821799       17.3071827161
  N        15.6647141044        3.0470794285        5.2020282592
  C        15.9333313441        1.7293551891        5.4728418995
  N        15.6726287400       13.8665642757       16.0182787769
  C        15.9421839336       12.5490544511       16.2879642671
  N        15.6722269315       19.7312308594       17.5759920906
  C        15.9399911430       21.0488350339       17.3042024068
  N        15.6697803190        8.9118091684        6.7604854658
  C        15.9406369199       10.2291549450        6.4915859291
  N         6.4037177132       19.7363445190        5.2087453758
  C         6.1336359382       21.0539273339        5.4784663619
  N         6.4042650103        8.9163494743       16.0234421554
  C         6.1354055643       10.2339022090       16.2939378084
  N         6.4063780984        3.0527450764       17.5823566844
  C         6.1395405124        1.7348672120       17.3106306172
  N         6.4028957341       13.8709541247        6.7626558070
  C         6.1334141121       12.5535281959        6.4924137704
  N         4.8533861848       16.0246374554        3.0518833317
  C         5.1250480830       16.2932759255        1.7344077537
  N         4.8502502703        5.2047693707       13.8714849521
  C         5.1190918639        5.4749306147       12.5538203070
  N        17.2244979601       16.0172542266       19.7312823360
  C        16.9539274281       16.2862504753       21.0489384700
  N        17.2227991137        5.2026623811        8.9113947935
  C        16.9550532847        5.4741172132       10.2289272107
  N         4.8490276371        6.7652145745       19.7362573849
  C         5.1182857439        6.4950659727       21.0538729264
  N         4.8505405709       17.5810334425        8.9167269528
  C         5.1207150213       17.3112102249       10.2341464389
  N        17.2179530956        6.7597484416        3.0470343064
  C        16.9478116470        6.4902555494        1.7294398393
  N        17.2265855237       17.5751770430       13.8663140215
  C        16.9571138330       17.3049037193       12.5488537016
  N         4.8469637825        3.0518924240        6.7632039422
  C         5.1171726814        1.7342304670        6.4940523059
  N         4.8533221961       13.8717990001       17.5824281334
  C         5.1220114981       12.5541978232       17.3119451417
  N        17.2198109434       19.7316295633        6.7588143689
  C        16.9487562592       21.0491063120        6.4897443173
  N        17.2236762901        8.9113708548       17.5769307828
  C        16.9556476377       10.2289071237       17.3057758487
  N         4.8555822850       19.7364307402       16.0239918316
  C         5.1262287605       21.0540340908       16.2929157123
  N         4.8482343112        8.9162273242        5.2055810641
  C         5.1181885179       10.2337098259        5.4753711977
  N        17.2226174734        3.0471815475       16.0162542852
  C        16.9529607853        1.7294232864       16.2857089465
  N        17.2254252494       13.8662970767        5.2042246894
  C        16.9563080397       12.5488341986        5.4748192169
  N         2.6985250142       16.0245402800       17.5809444449
  C         1.3805974288       16.2923341819       17.3084243488
  N        13.5158107540       16.0185420819        6.7575339593
  C        12.1979109466       16.2893549218        6.4882135380
  N        19.3784500488       16.0206811691        5.2023301607
  C        20.6961841221       16.2905795998        5.4739941091
  N         8.5603253191       16.0234679974       16.0234685681
  C         9.8785421539       16.2927383807       16.2927376782
  N        19.3771485535        6.7584419237       17.5775257604
  C        20.6952625139        6.4899605286       17.3068376339
  N         8.5562136721        6.7613333126        6.7613356244
  C         9.8738306285        6.4906422547        6.4906430344
  N         2.6922760002        6.7639720747        5.2076372482
  C         1.3743574902        6.4934011563        5.4773096148
  N        13.5158087546        6.7575326044       16.0185410625
  C        12.1979105261        6.4882130110       16.2893563826
  N        15.6670353523        5.2005942562       19.7310563215
  C        15.9344766983        5.4721478113       21.0488313511
  N        15.6701468332       16.0195675948        8.9117476834
  C        15.9409015172       16.2886484692       10.2291279714
  N        15.6699654546       17.5745497994        3.0467526932
  C        15.9388711246       17.3035001966        1.7291992426
  N        15.6719979374        6.7615752069       13.8664531913
  C        15.9417232332        6.4920862465       12.5489827053
  N         6.4007579657        5.2063077405        3.0519611006
  C         6.1321947189        5.4772336151        1.7342954388
  N         6.4061208955       16.0246701070       13.8715788986
  C         6.1364063117       16.2945326662       12.5540434501
  N         6.4096344349       17.5813778069       19.7367374514
  C         6.1410822631       17.3100555555       21.0543462761
  N         6.4018209980        6.7631612631        8.9161561362
  C         6.1328225346        6.4926745451       10.2336124910
  N        19.3771442185       17.5775260658        6.7584428312
  C        20.6952618536       17.3068386967        6.4899615560
  N         8.5623612254       17.5798420453       17.5798401556
  C         9.8798814055       17.3088348606       17.3088332760
  N         2.6922734148        5.2076285671        6.7639764679
  C         1.3743559451        5.4773053565        6.4934031076
  N        13.5156355992        5.2011868315       17.5751183363
  C        12.1978021579        5.4723132954       17.3056725635
  N         2.6985239782       17.5809495268       16.0245361991
  C         1.3805932478       17.3084281358       16.2923313826
  N        13.5156376104       17.5751183815        5.2011874891
  C        12.1978047137       17.3056709943        5.4723129089
  N        19.3784551984        5.2023285509       16.0206814188
  C        20.6961920945        5.4739931797       16.2905793245
  N         8.5548156814        5.2049810953        5.2049808094
  C         9.8729016516        5.4745678821        5.4745677747
  N         6.4096316829       19.7367404449       17.5813771337
  C         6.1410783291       21.0543476626       17.3100578112
  N         6.4018269017        8.9161543687        6.7631617458
  C         6.1328311936       10.2336123333        6.4926710821
  N         6.4007629680        3.0519583637        5.2063096815
  C         6.1321979528        1.7342963906        5.4772374523
  N         6.4061157793       13.8715808748       16.0246681029
  C         6.1364021842       12.5540413036       16.2945277454
  N        15.6699633028        3.0467492518       17.5745469556
  C        15.9388671138        1.7291969546       17.3034955505
  N        15.6719962041       13.8664555565        6.7615768427
  C        15.9417240997       12.5489852135        6.4920887427
  N        15.6670356050       19.7310547287        5.2005988211
  C        15.9344767513       21.0488290594        5.4721510215
  N        15.6701446970        8.9117478149       16.0195664743
  C        15.9408963589       10.2291299456       16.2886508207
  N        17.2198089895        6.7588111671       19.7316293075
  C        16.9487552139        6.4897424634       21.0491060914
  N        17.2236769951       17.5769339761        8.9113721934
  C        16.9556519615       17.3057742816       10.2289098468
  N         4.8469572211        6.7631995498        3.0518945064
  C         5.1171675847        6.4940477953        1.7342349938
  N         4.8533282713       17.5824320779       13.8717990618
  C         5.1220169243       17.3119503562       12.5541946483
  N        17.2226182450       16.0162567283        3.0471858885
  C        16.9529653638       16.2857118865        1.7294264649
  N        17.2254291915        5.2042245914       13.8662924689
  C        16.9563067633        5.4748189115       12.5488322990
  N         4.8555860164       16.0239926120       19.7364253766
  C         5.1262326030       16.2929130390       21.0540278831
  N         4.8482261115        5.2055816454        8.9162317547
  C         5.1181792360        5.4753759082       10.2337146345
  N        17.2244943435       19.7312779808       16.0172534185
  C        16.9539220128       21.0489325607       16.2862475620
  N        17.2227987667        8.9113989858        5.2026595455
  C        16.9550551597       10.2289330475        5.4741168684
  N         4.8533872094        3.0518880823       16.0246438082
  C         5.1250477473        1.7344147373       16.2932824857
  N         4.8502508198       13.8714810045        5.2047616238
  C         5.1190960769       12.5538164660        5.4749229080
  N        17.2179520993        3.0470338104        6.7597463415
  C        16.9478113814        1.7294401614        6.4902548795
  N        17.2265859070       13.8663132542       17.5751825985
  C        16.9571107185       12.5488522369       17.3049099602
  N         4.8490307410       19.7362541094        6.7652147562
  C         5.1182883083       21.0538724644        6.4950688324
  N         4.8505382885        8.9167282504       17.5810305186
  C         5.1207122338       10.2341469910       17.3112055392
  N        19.3748244018        6.7583769464        5.2019195200
  C        20.6926919792        6.4906866825        5.4745768318
  N         8.5584265386        6.7624057419       16.0228129827
  C         9.8762841624        6.4906581414       16.2914091675
  N         2.6946232209        6.7620845542       17.5790930966
  C         1.3769769891        6.4917854774       17.3076821336
  N        13.5134708464        6.7591946819        6.7591915107
  C        12.1953936616        6.4895847416        6.4895825372
  N         2.6962694112       16.0232133053        5.2051049142
  C         1.3780519042       16.2917998490        5.4754577683
  N        13.5178177393       16.0202107805       16.0202111817
  C        12.2002128819       16.2910880522       16.2910874888
  N        19.3807908019       16.0200194325       17.5765178771
  C        20.6987546166       16.2902187366       17.3063441817
  N         8.5584274235       16.0228136512        6.7624027732
  C         9.8762878914       16.2914082996        6.4906567625
  N         6.4063784396       17.5823492659        3.0527418049
  C         6.1395412370       17.3106233307        1.7348660649
  N         6.4028938411        6.7626642692       13.8709545824
  C         6.1334099390        6.4924221005       12.5535285769
  N         6.4037160602        5.2087459688       19.7363467312
  C         6.1336336018        5.4784651869       21.0539304796
  N         6.4042674074       16.0234459051        8.9163474768
  C         6.1354088473       16.2939419588       10.2339010570
  N        15.6722308323       17.5759939188       19.7312355870
  C        15.9399979293       17.3042049666       21.0488360765
  N        15.6697818866        6.7604887365        8.9118048187
  C        15.9406341540        6.4915877316       10.2291552247
  N        15.6647168204        5.2020276641        3.0470811650
  C        15.9333337753        5.4728418235        1.7293592382
  N        15.6726273625       16.0182752136       13.8665633048
  C        15.9421860162       16.2879582031       12.5490519381
 Zn        14.3815533289       14.7257119093       14.7257143565
 Cl        13.1476506065       13.4940999839       13.4941050749
 Zn        14.3761620106        3.9078469310        3.9078459039
 Cl        13.1394767330        2.6775233872        2.6775191774
 Zn         3.5623560646       14.7311928209        3.9096466676
 Cl         2.3303970267       13.4991342967        2.6763698460
 Zn         3.5623593882        3.9096505101       14.7311969232
 Cl         2.3304012420        2.6763743496       13.4991367361
 Zn         7.6932261412        8.0555119268       14.7287266711
 Cl         8.9261516316        9.2871899584       13.4959791339
 Zn         7.6936979278       18.8756883162        3.9154166081
 Cl         8.9285129710       20.1098968028        2.6868470854
 Zn        18.5101296681        8.0513183477        3.9066664438
 Cl        19.7432118421        9.2840929578        2.6753682710
 Zn        18.5152346339       18.8702183612       14.7254513072
 Cl        19.7488732683       20.1001429569       13.4916764786
 Zn         7.6932241561       14.7287285557        8.0555064832
 Cl         8.9261451609       13.4959786159        9.2871863569
 Zn         7.6937003196        3.9154202605       18.8756927884
 Cl         8.9285196125        2.6868525280       20.1098997677
 Zn        18.5152365297       14.7254503059       18.8702248265
 Cl        19.7488746280       13.4916712787       20.1001463828
 Zn        18.5101292554        3.9066672493        8.0513128115
 Cl        19.7432139613        2.6753761973        9.2840912908
 Zn        14.3788290712        8.0528957866        8.0528922598
 Cl        13.1466028963        9.2854353431        9.2854304862
 Zn        14.3836839272       18.8708388674       18.8708425984
 Cl        13.1498643121       20.1025240762       20.1025261923
 Zn         3.5587899032        8.0560348902       18.8731709638
 Cl         2.3236749787        9.2903574311       20.1011317065
 Zn         3.5587883372       18.8731673057        8.0560310866
 Cl         2.3236740107       20.1011309019        9.2903506069
 Zn        14.3802289807       14.7255926630        8.0527897156
 Cl        13.1469631547       13.4945116776        9.2856770173
 Zn        14.3801392606        3.9058270159       18.8688503739
 Cl        13.1449529763        2.6722593389       20.0973817342
 Zn         3.5636696898       14.7316684785       18.8753376734
 Cl         2.3308560193       13.4995611613       20.1077407946
 Zn         3.5577162402        3.9123423480        8.0557538726
 Cl         2.3242419687        2.6825044072        9.2899465588
 Zn         7.6926197972        8.0551765660        8.0551800932
 Cl         8.9271372730        9.2865828905        9.2865900788
 Zn         7.6992617477       18.8742384421       18.8742351057
 Cl         8.9355648969       20.1047796951       20.1047789820
 Zn        18.5113910791        8.0511532920       18.8721661448
 Cl        19.7432783305        9.2835488914       20.1051784341
 Zn        18.5113951080       18.8721689274        8.0511577522
 Cl        19.7432833190       20.1051838296        9.2835506675
 Zn        14.3802316750        8.0527857340       14.7255908197
 Cl        13.1469600595        9.2856698058       13.4945128092
 Zn        14.3801398321       18.8688546114        3.9058286655
 Cl        13.1449496679       20.0973821922        2.6722606714
 Zn         3.5577136548        8.0557507042        3.9123552946
 Cl         2.3242469579        9.2899446311        2.6825110814
 Zn         3.5636709036       18.8753405727       14.7316606644
 Cl         2.3308561077       20.1077435246       13.4995538151
 Zn         7.6945953234       14.7295923139       14.7295950506
 Cl         8.9275444339       13.4973810655       13.4973807110
 Zn         7.6893723493        3.9112037224        3.9111997202
 Cl         8.9222953387        2.6790398623        2.6790454080
 Zn        18.5137543703       14.7252834510        3.9087015237
 Cl        19.7485941131       13.4910192311        2.6805458981
 Zn        18.5137558216        3.9087026278       14.7252859843
 Cl        19.7485890638        2.6805439405       13.4910182265
 Zn         5.6267293160        5.9890930368       16.8068971394
 Zn        16.4485102345       16.7983335450       16.7983350540
 Zn        16.4445397589        5.9810990065        5.9810978457
 Zn         5.6267280679       16.8068966439        5.9890883635
 Zn         5.6247501820        5.9883940765        5.9883998093
 Zn        16.4464991410       16.7983613694        5.9808247720
 Zn         5.6292071806       16.8078682568       16.8078652119
 Zn        16.4464996689        5.9808207750       16.7983592492
  N         3.4417178802        5.9835633905       16.8019732487
  N        14.2591400732        5.9806761465        5.9806734829
  N        18.6345350536       16.7983093469       16.7983122844
  N         7.8120757518       16.8026609525        5.9859250330
  N        18.6285706584        5.9788729471        5.9788693321
  N         7.8120731804        5.9859288477       16.8026610325
  N         3.4417129956       16.8019706407        5.9835591360
  N        14.2648502526       16.7981077526       16.7981104349
  N        16.4418587880        3.7937751756        5.9804206469
  N        16.4495258349       14.6130855227       16.7969466354
  N        16.4491449636       18.9845794233       16.7974333458
  N        16.4454672622        8.1650004743        5.9809381873
  N         5.6265984060       18.9897864680        5.9871329218
  N         5.6270440028        8.1701176333       16.8020982553
  N         5.6285021273        3.7991438019       16.8044462815
  N         5.6267449101       14.6180412391        5.9837912839
  N         5.6285012728       16.8044394942        3.7991392281
  N         5.6267449491        5.9837990566       14.6180438684
  N        16.4491472959       16.7974334875       18.9845847382
  N        16.4454695243        5.9809430534        8.1649952758
  N         5.6265973238        5.9871333589       18.9897892888
  N         5.6270450835       16.8021017551        8.1701156470
  N        16.4418609292        5.9804219051        3.7937761976
  N        16.4495233890       16.7969432770       14.6130853263
  N         5.6234568053        3.7987449667        5.9843568373
  N         5.6299792537       14.6185314988       16.8037502951
  N        16.4444855441       18.9846730581        5.9789631150
  N        16.4461943621        8.1649530128       16.7988026109
  N         5.6318860146       18.9901326693       16.8035031379
  N         5.6247589905        8.1697387804        5.9846132202
  N        16.4465640944        3.7936664080       16.7959316582
  N        16.4484821990       14.6130324686        5.9825884167
  N         3.4448071722       16.8041236960       16.8041190416
  N        14.2619673442       16.7965474985        5.9789525244
  N        18.6315463651       16.7993305009        5.9795675500
  N         7.8150415536       16.8021412993       16.8021409642
  N        18.6315512353        5.9795660419       16.7993306604
  N         7.8092259850        5.9834748055        5.9834761226
  N         3.4385827839        5.9859888355        5.9859962126
  N        14.2619654665        5.9789503594       16.7965461846
  N        16.4444845298        5.9789582868       18.9846732256
  N        16.4461933980       16.7988076868        8.1649539562
  N        16.4465639935       16.7959323258        3.7936712511
  N        16.4484872189        5.9825894968       14.6130277933
  N         5.6234510297        5.9843538200        3.7987481231
  N         5.6299847007       16.8037521697       14.6185301423
  N         5.6318882215       16.8035055712       18.9901284910
  N         5.6247535857        5.9846105507        8.1697423183
  C        11.0386079664       15.7417162422       15.7417151600
  H        11.0374479760       14.9661714967       14.9661703214
  C        11.0332371996        4.9238413547        4.9238404160
  H        11.0324148375        4.1482962581        4.1482945585
  C         0.2177365100       15.7407166442        4.9249299481
  H         0.2186517370       14.9649088064        4.1496484040
  C         0.2177418954        4.9249318876       15.7407191065
  H         0.2186632515        4.1496492233       14.9649103548
  C        11.0371786660        7.0392600478       15.7398400637
  H        11.0372986044        7.8146007806       14.9640896590
  C        11.0369055453       17.8571780234        4.9236858493
  H        11.0366819645       18.6331217109        4.1485387927
  C         0.2135114775        7.0425770364        4.9261499970
  H         0.2134799565        7.8183416846        4.1508269576
  C         0.2196805174       17.8570694771       15.7407238637
  H         0.2197568107       18.6324136260       14.9649806256
  C        11.0371795488       15.7398410456        7.0392580285
  H        11.0372987432       14.9640896882        7.8146013070
  C        11.0369015902        4.9236889343       17.8571781559
  H        11.0366757008        4.1485405841       18.6331231273
  C         0.2196802561       15.7407235822       17.8570676235
  H         0.2197628376       14.9649790360       18.6324111166
  C         0.2135099857        4.9261450989        7.0425778034
  H         0.2134740658        4.1508234056        7.8183391331
  C        11.0351017890        7.0402966629        7.0402954830
  H        11.0357136842        7.8158447313        7.8158425485
  C        11.0413579159       17.8581851394       17.8581844419
  H        11.0425415467       18.6337343715       18.6337338863
  C         0.2155011399        7.0413598593       17.8570375650
  H         0.2146273489        7.8171596699       18.6323199444
  C         0.2154959948       17.8570350844        7.0413571181
  H         0.2146260490       18.6323188704        7.8171584311
  C        15.3916311880       11.3892343313       15.7368935253
  H        14.6167357007       11.3894144770       14.9606347640
  C        15.3837948743        0.5690077056        4.9215475077
  H        14.6091599152        0.5688624291        4.1450351980
  C         4.5687596323       11.3939006177        4.9237792199
  H         3.7940760060       11.3940006620        4.1473288420
  C         4.5762575501        0.5740544741       15.7414471460
  H         3.8015805688        0.5737975915       14.9649895524
  C        15.3914200225       11.3892039750        7.0434608672
  H        14.6165220864       11.3893647465        7.8197182409
  C        15.3895328199        0.5689227623       17.8549945217
  H        14.6150789405        0.5688150939       18.6316729377
  C         4.5714815107       11.3943253965       17.8628883981
  H         3.7967837179       11.3944715269       18.6393182894
  C         4.5677211585        0.5740502876        7.0456637841
  H         3.7928489476        0.5740616898        7.8219263251
  C         6.6858473981       11.3938996250       15.7429291390
  H         7.4605282944       11.3937432756       14.9664517309
  C         6.6832797505        0.5741835004        4.9271403219
  H         7.4586555746        0.5741931103        4.1513760756
  C        17.5057807422       11.3887361730        4.9232808794
  H        18.2802645249       11.3885500796        4.1466374374
  C        17.5026485196        0.5692873125       15.7341233368
  H        18.2768846317        0.5694089682       14.9572225016
  C         6.6830596654       11.3935037871        7.0438847975
  H         7.4576964099       11.3934124119        7.8204034093
  C         6.6906763660        0.5748652883       17.8610267460
  H         7.4654978481        0.5751873323       18.6373388100
  C        17.5066732934       11.3887429027       17.8563310182
  H        18.2815445571       11.3885440226       18.6325929441
  C        17.4976862121        0.5693944696        7.0416434484
  H        18.2722655328        0.5695236785        7.8181857299
  C        15.3916347782       15.7368888080       11.3892340889
  H        14.6167370900       14.9606324052       11.3894100529
  C        15.3837960265        4.9215444586        0.5690089102
  H        14.6091629193        4.1450318301        0.5688664655
  C         4.5762605937       15.7414421932        0.5740491885
  H         3.8015839471       14.9649833860        0.5737871075
  C         4.5687517451        4.9237874168       11.3939062115
  H         3.7940659246        4.1473385560       11.3940121247
  C         6.6858536959       15.7429328816       11.3938959436
  H         7.4605348865       14.9664589824       11.3937412144
  C         6.6832740588        4.9271398261        0.5741866535
  H         7.4586507313        4.1513720462        0.5741930940
  C        17.5026524033       15.7341276777        0.5692919046
  H        18.2768886719       14.9572244269        0.5694145070
  C        17.5057816534        4.9232789187       11.3887310639
  H        18.2802662508        4.1466403238       11.3885447214
  C        15.3914203998        7.0434582720       11.3891992325
  H        14.6165231951        7.8197200028       11.3893627676
  C        15.3895378963       17.8550000665        0.5689284519
  H        14.6150848091       18.6316774723        0.5688183595
  C         4.5677127753        7.0456607561        0.5740528894
  H         3.7928389384        7.8219171306        0.5740652306
  C         4.5714890943       17.8628928335       11.3943262302
  H         3.7967925182       18.6393271566       11.3944730579
  C         6.6830528294        7.0438924737       11.3935047716
  H         7.4576878878        7.8204120271       11.3934088941
  C         6.6906798562       17.8610215319        0.5748613499
  H         7.4655019597       18.6373323255        0.5751871615
  C        17.4976844789        7.0416431872        0.5693948692
  H        18.2722630768        7.8181866405        0.5695236650
  C        17.5066768861       17.8563265814       11.3887437681
  H        18.2815466317       18.6325909688       11.3885481079
 Xe        20.0885365287       10.5988090458       10.5988091633
