     409
 i =     150, E =    -5183.7507508897
  N         3.0486977849        5.2048386068       16.0159147196
  C         1.7311698144        5.4759030876       16.2854187263
  N        13.8651569007        5.2046215108        5.2046200812
  C        12.5481484488        5.4747920150        5.4748011349
  N        19.7304637546       17.5720008794       16.0159731331
  C        21.0483313617       17.3007934215       16.2851780395
  N         8.9111302228       17.5721798836        5.2046921681
  C        10.2281161798       17.3016715599        5.4746687880
  N        19.7306817761        5.2047755313        6.7607028103
  C        21.0484820601        5.4756573403        6.4912772490
  N         8.9111351204        5.2046938219       17.5721821233
  C        10.2280664517        5.4746777483       17.3016515744
  N         3.0487260481       17.5720562006        6.7604577905
  C         1.7311200236       17.3008488352        6.4910720258
  N        13.8653399319       17.5720443900       17.5720453103
  C        12.5484315401       17.3017546665       17.3017493065
  N        16.0159953829        3.0487150622        5.2048149296
  C        16.2855970527        1.7312496724        5.4758180221
  N        16.0162675992       13.8649783595       16.0161720528
  C        16.2865508385       12.5481804547       16.2862313323
  N        16.0160379283       19.7304913875       17.5720627326
  C        16.2853051605       21.0482449193       17.3008436362
  N        16.0162624512        8.9114851435        6.7604188862
  C        16.2864817521       10.2282861721        6.4903121132
  N         6.7605104201       19.7306919425        5.2046164641
  C         6.4908872088       21.0483959228        5.4753941658
  N         6.7601996457        8.9114776216       16.0160715840
  C         6.4898549200       10.2282228456       16.2860762520
  N         6.7603733791        3.0487361923       17.5721069708
  C         6.4909160591        1.7311487934       17.3009650061
  N         6.7602635021       13.8648043670        6.7603876269
  C         6.4900725316       12.5479163442        6.4903339596
  N         5.2047396878       16.0159675079        3.0486991796
  C         5.4757638009       16.2855708206        1.7312596561
  N         5.2045065375        5.2046600625       13.8651333939
  C         5.4746455625        5.4749231120       12.5482406960
  N        17.5720626191       16.0160358277       19.7304556235
  C        17.3009128350       16.2852369061       21.0483695173
  N        17.5723603860        5.2048651492        8.9111260407
  C        17.3020485742        5.4749976142       10.2281612158
  N         5.2045788604        6.7605454648       19.7306559884
  C         5.4752839095        6.4909940402       21.0485222123
  N         5.2046363861       17.5721632872        8.9111191955
  C         5.4745589420       17.3016343552       10.2281777859
  N        17.5721457402        6.7604461811        3.0487615074
  C        17.3010398751        6.4909997308        1.7311087623
  N        17.5720956813       17.5720135659       13.8653684099
  C        17.3019839109       17.3016801743       12.5482019697
  N         5.2046117742        3.0486407019        6.7605037427
  C         5.4754280525        1.7309888830        6.4908525335
  N         5.2046689155       13.8652428373       17.5721386687
  C         5.4745860111       12.5482647975       17.3016080687
  N        17.5721926302       19.7305545405        6.7604417182
  C        17.3011777264       21.0484203356        6.4911093243
  N        17.5721344265        8.9110120910       17.5720169867
  C        17.3019839855       10.2281013036       17.3016525414
  N         5.2047023544       19.7305851082       16.0159272592
  C         5.4755977534       21.0483457192       16.2854035974
  N         5.2044760922        8.9112198872        5.2046439619
  C         5.4745850994       10.2283146890        5.4748836426
  N        17.5720027564        3.0488570272       16.0160340448
  C        17.3007656345        1.7311513379       16.2853401710
  N        17.5722919835       13.8652562340        5.2048408815
  C        17.3020227960       12.5481671441        5.4749682903
  N         3.0488215665       16.0160513602       17.5719801667
  C         1.7312087907       16.2853460842       17.3006507558
  N        13.8649100279       16.0161038994        6.7602483553
  C        12.5480645926       16.2861057143        6.4899837515
  N        19.7305877649       16.0158683788        5.2048068653
  C        21.0483628525       16.2852790552        5.4757652364
  N         8.9113820565       16.0162076897       16.0162091563
  C        10.2281639337       16.2863791998       16.2863743482
  N        19.7305589468        6.7605227238       17.5721116668
  C        21.0484007786        6.4912322301       17.3010107131
  N         8.9115567576        6.7603638742        6.7603634835
  C        10.2283784192        6.4902185885        6.4902279143
  N         3.0486083010        6.7606484030        5.2048150215
  C         1.7310636354        6.4911119967        5.4758095117
  N        13.8649063381        6.7602496411       16.0161044028
  C        12.5480939242        6.4899711644       16.2861060028
  N        16.0159539845        5.2047269572       19.7305987117
  C        16.2854359922        5.4756189725       21.0483736960
  N        16.0162663490       16.0161380465        8.9113810113
  C        16.2865360817       16.2862036974       10.2282256301
  N        16.0160735903       17.5719759133        3.0488164909
  C        16.2854571310       17.3006621043        1.7313239635
  N        16.0162353072        6.7603609642       13.8648797533
  C        16.2864716223        6.4902472782       12.5481435991
  N         6.7604544054        5.2046675652        3.0485996584
  C         6.4907118650        5.4755639914        1.7312146070
  N         6.7601904482       16.0160875979       13.8649012114
  C         6.4898942289       16.2860467787       12.5480043000
  N         6.7604268724       17.5721573165       19.7305675905
  C         6.4910570418       17.3011085117       21.0483596277
  N         6.7602705803        6.7604144769        8.9115863771
  C         6.4900086914        6.4902778987       10.2282051132
  N        19.7305604620       17.5721111534        6.7605228357
  C        21.0483856888       17.3010062735        6.4912285881
  N         8.9110223793       17.5720815320       17.5720811765
  C        10.2281247072       17.3018222545       17.3018163894
  N         3.0486074215        5.2048152271        6.7606464158
  C         1.7310958794        5.4758156326        6.4911051362
  N        13.8652502150        5.2047345978       17.5721601770
  C        12.5482154299        5.4746715089       17.3016659055
  N         3.0488191602       17.5719817258       16.0160489026
  C         1.7312482156       17.3006447165       16.2853517831
  N        13.8652509884       17.5721596904        5.2047338081
  C        12.5482436082       17.3016692051        5.4746807914
  N        19.7305866717        5.2048067271       16.0158695637
  C        21.0483493646        5.4757660425       16.2852812651
  N         8.9112430229        5.2045843971        5.2045825862
  C        10.2281438189        5.4748042232        5.4748131797
  N         6.7604279818       19.7305675854       17.5721577190
  C         6.4910636921       21.0483939220       17.3011125317
  N         6.7602706759        8.9115846527        6.7604148068
  C         6.4900059714       10.2281999740        6.4902829243
  N         6.7604533313        3.0486021230        5.2046696595
  C         6.4907178532        1.7312111079        5.4755629445
  N         6.7601907645       13.8648981893       16.0160882591
  C         6.4898843815       12.5480327265       16.2860525937
  N        16.0160721252        3.0488179339       17.5719754042
  C        16.2854502821        1.7313090100       17.3006636076
  N        16.0162369779       13.8648844551        6.7603579615
  C        16.2864723775       12.5481346705        6.4902573716
  N        16.0159566120       19.7306017920        5.2047255833
  C        16.2854401434       21.0483641887        5.4756275394
  N        16.0162667871        8.9113890437       16.0161400062
  C        16.2865580132       10.2281681886       16.2862190795
  N        17.5721907954        6.7604425238       19.7305571756
  C        17.3011739212        6.4911006095       21.0484113238
  N        17.5721354845       17.5720134886        8.9110164733
  C        17.3019664214       17.3016403778       10.2280464692
  N         5.2046124683        6.7605017221        3.0486434523
  C         5.4754225342        6.4908530102        1.7309865533
  N         5.2046684154       17.5721386699       13.8652369256
  C         5.4746001138       17.3015982935       12.5482973845
  N        17.5720027063       16.0160330067        3.0488558469
  C        17.3007695186       16.2853403559        1.7311377080
  N        17.5722893093        5.2048432942       13.8652599734
  C        17.3020217833        5.4749576270       12.5481577248
  N         5.2047008642       16.0159274273       19.7305820892
  C         5.4755873895       16.2853960702       21.0483834313
  N         5.2044764103        5.2046434798        8.9112188346
  C         5.4745865313        5.4748769274       10.2283123527
  N        17.5720607898       19.7304519242       16.0160361784
  C        17.3009152959       21.0483918586       16.2852284320
  N        17.5723585050        8.9111345394        5.2048636103
  C        17.3020394073       10.2281226134        5.4750173432
  N         5.2047389474        3.0487075434       16.0159692229
  C         5.4757463552        1.7311949006       16.2855528179
  N         5.2045077899       13.8651271291        5.2046585599
  C         5.4746513272       12.5482654229        5.4749348938
  N        17.5721451313        3.0487666357        6.7604452652
  C        17.3010445521        1.7310865643        6.4910102444
  N        17.5720932242       13.8653632695       17.5720124180
  C        17.3019734970       12.5482486389       17.3016635646
  N         5.2045790546       19.7306592557        6.7605458181
  C         5.4752999163       21.0484806442        6.4909830317
  N         5.2046360283        8.9111189386       17.5721629272
  C         5.4745538519       10.2281748029       17.3016342335
  N        19.7306893428        6.7607038613        5.2047756697
  C        21.0484210724        6.4912591688        5.4756758707
  N         8.9114597109        6.7602517403       16.0160882103
  C        10.2283357364        6.4899811069       16.2860900547
  N         3.0487234082        6.7604601290       17.5720579729
  C         1.7311408543        6.4910677144       17.3008449182
  N        13.8648138768        6.7603666434        6.7603656490
  C        12.5480557721        6.4902130275        6.4902221327
  N         3.0486949104       16.0159129036        5.2048375790
  C         1.7311947465       16.2854247906        5.4759103483
  N        13.8650198655       16.0162138457       16.0162152076
  C        12.5480093437       16.2863182893       16.2863133747
  N        19.7304695755       16.0159715673       17.5720028651
  C        21.0482794047       16.2851918378       17.3007799968
  N         8.9114655417       16.0160857684        6.7602508664
  C        10.2282931793       16.2861066229        6.4899758820
  N         6.7603733892       17.5721053727        3.0487434994
  C         6.4909361429       17.3009859695        1.7310792810
  N         6.7602624838        6.7603899913       13.8648029373
  C         6.4900676782        6.4903234566       12.5479416854
  N         6.7605097161        5.2046168558       19.7306998783
  C         6.4908705607        5.4754059080       21.0483551159
  N         6.7602007161       16.0160715541        8.9114769494
  C         6.4898560792       16.2860804989       10.2282145944
  N        16.0160396155       17.5720614326       19.7304910240
  C        16.2853047254       17.3008496856       21.0482646999
  N        16.0162625803        6.7604209956        8.9114904264
  C        16.2864905217        6.4902924520       10.2282468074
  N        16.0159984040        5.2048160436        3.0487175037
  C        16.2855930003        5.4758072195        1.7312274452
  N        16.0162705497       16.0161722225       13.8649758346
  C        16.2865582255       16.2862443056       12.5482219541
 Zn        14.7218174271       14.7218006966       14.7217972614
 Cl        13.4904463646       13.4903127174       13.4903127042
 Zn        14.7234460995        3.9096781141        3.9096734016
 Cl        13.4889858647        2.6797424580        2.6797452802
 Zn         3.9095886423       14.7234050920        3.9096799912
 Cl         2.6796359952       13.4889231236        2.6798040289
 Zn         3.9095852596        3.9096803633       14.7234038523
 Cl         2.6796336892        2.6798033241       13.4889220023
 Zn         8.0545624397        8.0545983671       14.7216598995
 Cl         9.2859352963        9.2860246486       13.4901598299
 Zn         8.0525805073       18.8677151645        3.9099522822
 Cl         9.2875327466       20.0965079846        2.6794042829
 Zn        18.8677826023        8.0526517466        3.9100287311
 Cl        20.0965853738        9.2876405710        2.6795421913
 Zn        18.8672625952       18.8672597415       14.7240482186
 Cl        20.0966540639       20.0965788646       13.4884457109
 Zn         8.0545618056       14.7216591350        8.0545976061
 Cl         9.2859369601       13.4901610448        9.2860241191
 Zn         8.0525794947        3.9099543803       18.8677143817
 Cl         9.2875294022        2.6794054142       20.0965069542
 Zn        18.8672587659       14.7240480431       18.8672567464
 Cl        20.0966541903       13.4884496489       20.0965773672
 Zn        18.8677825732        3.9100278193        8.0526547658
 Cl        20.0965863675        2.6795405268        9.2876434034
 Zn        14.7217236665        8.0546277295        8.0546214464
 Cl        13.4903271542        9.2860721071        9.2860737727
 Zn        14.7240714947       18.8672581610       18.8672587060
 Cl        13.4884952493       20.0966276325       20.0966252109
 Zn         3.9099259024        8.0526097612       18.8677402264
 Cl         2.6793487453        9.2875873161       20.0964716639
 Zn         3.9099222175       18.8677390116        8.0526092399
 Cl         2.6793504347       20.0964733576        9.2875874378
 Zn        14.7217672470       14.7217143783        8.0545344518
 Cl        13.4903839691       13.4902087531        9.2859660411
 Zn        14.7237531226        3.9100747024       18.8676480490
 Cl        13.4887356151        2.6795177268       20.0963960106
 Zn         3.9100123620       14.7237276627       18.8676382590
 Cl         2.6794640927       13.4887155204       20.0963911844
 Zn         3.9094911948        3.9095896782        8.0529386009
 Cl         2.6795049592        2.6797312309        9.2873776244
 Zn         8.0546162695        8.0546679707        8.0546650182
 Cl         9.2859996829        9.2861149784        9.2861157418
 Zn         8.0522571029       18.8673519856       18.8673567685
 Cl         9.2877967041       20.0967306313       20.0967282054
 Zn        18.8673627035        8.0523067322       18.8673367550
 Cl        20.0967774427        9.2878384720       20.0966721631
 Zn        18.8673604242       18.8673396802        8.0523035183
 Cl        20.0967783991       20.0966703285        9.2878366983
 Zn        14.7217635804        8.0545347604       14.7217189537
 Cl        13.4903840758        9.2859643477       13.4902077827
 Zn        14.7237499932       18.8676419570        3.9100755773
 Cl        13.4887392193       20.0963955031        2.6795176321
 Zn         3.9094947634        8.0529357106        3.9095828837
 Cl         2.6795030001        9.2873781090        2.6797327029
 Zn         3.9100122220       18.8676402903       14.7237330614
 Cl         2.6794649875       20.0963889710       13.4887150042
 Zn         8.0545039101       14.7217357796       14.7217340332
 Cl         9.2858644671       13.4902528868       13.4902535311
 Zn         8.0528936973        3.9095695636        3.9095769143
 Cl         9.2872723957        2.6796164419        2.6796151851
 Zn        18.8676668270       14.7237112611        3.9100809577
 Cl        20.0964466702       13.4886452418        2.6796103674
 Zn        18.8676648324        3.9100848628       14.7237099200
 Cl        20.0964447013        2.6796096616       13.4886481737
 Zn         5.9839111845        5.9839534994       16.7938234410
 Zn        16.7938487556       16.7938413103       16.7938346038
 Zn        16.7939057533        5.9839674121        5.9839746485
 Zn         5.9839249458       16.7938310479        5.9839480359
 Zn         5.9838676985        5.9839579743        5.9839493959
 Zn        16.7938647843       16.7938264166        5.9839345757
 Zn         5.9839438805       16.7938303299       16.7938399896
 Zn        16.7938640061        5.9839383729       16.7938391150
  N         3.7952237964        5.9821688719       16.7944726226
  N        14.6113047232        5.9825577831        5.9825406414
  N        18.9839078598       16.7945650409       16.7945789664
  N         8.1650489159       16.7942068707        5.9826221780
  N        18.9841031772        5.9823251921        5.9823145665
  N         8.1650474930        5.9826247990       16.7942298953
  N         3.7952246231       16.7944666888        5.9821616011
  N        14.6114700968       16.7941150726       16.7941236699
  N        16.7944720152        3.7952590133        5.9822170443
  N        16.7940055173       14.6114616879       16.7941873136
  N        16.7945677033       18.9839210599       16.7945895895
  N        16.7942001715        8.1650603237        5.9826032227
  N         5.9822454185       18.9840942027        5.9822731313
  N         5.9826285054        8.1650495310       16.7942321481
  N         5.9821247417        3.7952423567       16.7944673232
  N         5.9824709260       14.6112825471        5.9824891405
  N         5.9821150807       16.7944502047        3.7952405321
  N         5.9824676264        5.9825019041       14.6112836326
  N        16.7945712500       16.7945814815       18.9839221084
  N        16.7942045511        5.9826204828        8.1650592166
  N         5.9822554672        5.9822699266       18.9840956574
  N         5.9826275354       16.7942254302        8.1650485736
  N        16.7944726050        5.9822261369        3.7952578058
  N        16.7940031414       16.7941743666       14.6114619145
  N         5.9822375071        3.7951554727        5.9822577598
  N         5.9826243395       14.6113731763       16.7942401941
  N        16.7944850827       18.9840155684        5.9821809781
  N        16.7940247390        8.1649622593       16.7941766587
  N         5.9821441591       18.9840077721       16.7944671931
  N         5.9825073177        8.1651398920        5.9825395887
  N        16.7945585619        3.7953439211       16.7945431221
  N        16.7941408516       14.6113704455        5.9825768050
  N         3.7953206542       16.7946083909       16.7945960806
  N        14.6113841237       16.7942069761        5.9826467334
  N        18.9840017901       16.7944852238        5.9821819006
  N         8.1649621021       16.7940955816       16.7941046528
  N        18.9840003990        5.9821790031       16.7944805375
  N         8.1651398260        5.9825214678        5.9825053831
  N         3.7951342477        5.9823165538        5.9823227542
  N        14.6113822686        5.9826657694       16.7942125755
  N        16.7944794898        5.9821877129       18.9840155361
  N        16.7940410081       16.7941810939        8.1649606140
  N        16.7945509713       16.7945426328        3.7953430230
  N        16.7941471358        5.9825896150       14.6113704641
  N         5.9822421769        5.9822599194        3.7951559392
  N         5.9826133311       16.7942426377       14.6113722170
  N         5.9821544941       16.7944736807       18.9840059519
  N         5.9824991555        5.9825453668        8.1651398083
  C        11.3882723439       15.7365337153       15.7365280710
  H        11.3881341187       14.9614342090       14.9614327361
  C        11.3882265267        4.9250139896        4.9250246809
  H        11.3881704409        4.1500749784        4.1500786424
  C         0.5700764369       15.7358180855        4.9269653966
  H         0.5717816534       14.9607008796        4.1521252860
  C         0.5700944974        4.9269694310       15.7358237726
  H         0.5717833434        4.1521233030       14.9607002469
  C        11.3881342551        7.0397308200       15.7361538232
  H        11.3881407696        7.8147825544       14.9610592649
  C        11.3881831314       17.8513947452        4.9249132976
  H        11.3881640338       18.6263471750        4.1499830973
  C         0.5701215426        7.0406154912        4.9267981553
  H         0.5718001992        7.8156770448        4.1518648645
  C         0.5700724362       17.8495122847       15.7357953632
  H         0.5717956879       18.6243797863       14.9606644076
  C        11.3881749801       15.7361569342        7.0397415240
  H        11.3881434646       14.9610619160        7.8147829736
  C        11.3882203906        4.9248984940       17.8513959849
  H        11.3881640835        4.1499849276       18.6263428951
  C         0.5701207507       15.7357919236       17.8495163114
  H         0.5718008803       14.9606672113       18.6243779648
  C         0.5700734271        4.9268074814        7.0406057017
  H         0.5718020584        4.1518610876        7.8156807582
  C        11.3881317197        7.0401021163        7.0401124730
  H        11.3881403751        7.8151508052        7.8151534105
  C        11.3880866833       17.8515250667       17.8515181584
  H        11.3881811801       18.6264343542       18.6264309219
  C         0.5700941701        7.0405229166       17.8498042684
  H         0.5718135718        7.8156284197       18.6247201740
  C         0.5701142977       17.8498022425        7.0405210773
  H         0.5718163229       18.6247203737        7.8156278522
  C        15.7366502998       11.3881686496       15.7362883317
  H        14.9615620734       11.3881448720       14.9613530680
  C        15.7359826063        0.5700940128        4.9268301925
  H        14.9608194298        0.5718228064        4.1520552278
  C         4.9248316475       11.3880513836        4.9251529437
  H         4.1499099469       11.3881417928        4.1501627484
  C         4.9267805565        0.5701011968       15.7359579568
  H         4.1519743381        0.5717950231       14.9608109632
  C        15.7364854244       11.3881386164        7.0401272901
  H        14.9613075728       11.3881484034        7.8149850008
  C        15.7358411044        0.5701129492       17.8496173331
  H        14.9607264439        0.5718180470       18.6243861222
  C         4.9248160461       11.3881258797       17.8513302148
  H         4.1499043991       11.3881490871       18.6263216591
  C         4.9264898964        0.5701356410        7.0402452839
  H         4.1515739867        0.5717894421        7.8154659729
  C         7.0396568509       11.3882168946       15.7360761103
  H         7.8146956818       11.3881348892       14.9610288566
  C         7.0402947469        0.5700706442        4.9264329660
  H         7.8153690043        0.5717970162        4.1516498833
  C        17.8517495829       11.3882087845        4.9252756047
  H        18.6265902325       11.3881421361        4.1501892939
  C        17.8495277139        0.5701035317       15.7359131855
  H        18.6244290369        0.5717786339       14.9606498194
  C         7.0399637290       11.3882898679        7.0402364586
  H         7.8150255669       11.3881413912        7.8152060244
  C         7.0403605698        0.5701051859       17.8499172046
  H         7.8155089488        0.5717953182       18.6247863932
  C        17.8516509133       11.3881722895       17.8513069197
  H        18.6265488668       11.3881419092       18.6263562508
  C        17.8499230305        0.5701297053        7.0403606951
  H        18.6248334620        0.5717827840        7.8155710083
  C        15.7366535005       15.7362983805       11.3881171779
  H        14.9615595742       14.9613516134       11.3881493719
  C        15.7359964406        4.9268372638        0.5701024142
  H        14.9608166336        4.1520497203        0.5718251781
  C         4.9267708340       15.7359499460        0.5700471877
  H         4.1519772102       14.9608125408        0.5717949890
  C         4.9248433361        4.9251563494       11.3880665460
  H         4.1499078214        4.1501584045       11.3881448885
  C         7.0396538464       15.7360846618       11.3882351376
  H         7.8146984110       14.9610283772       11.3881346739
  C         7.0403076999        4.9264146645        0.5700900820
  H         7.8153634506        4.1516540589        0.5717962132
  C        17.8495347013       15.7359118963        0.5701207858
  H        18.6244292203       14.9606521176        0.5717808431
  C        17.8517261808        4.9252862546       11.3881951445
  H        18.6265934128        4.1501826490       11.3881440262
  C        15.7364626687        7.0401375754       11.3881534161
  H        14.9613116871        7.8149781185       11.3881449860
  C        15.7358455997       17.8496189425        0.5700942620
  H        14.9607279942       18.6243872467        0.5718160433
  C         4.9265022491        7.0402273502        0.5701162097
  H         4.1515685370        7.8154695959        0.5717926156
  C         4.9248082239       17.8513435621       11.3881075459
  H         4.1499099089       18.6263183540       11.3881487930
  C         7.0399736838        7.0402387545       11.3882744242
  H         7.8150237853        7.8152027411       11.3881413411
  C         7.0403471366       17.8499057656        0.5701579005
  H         7.8155140144       18.6247907386        0.5717947321
  C        17.8499370173        7.0403683670        0.5701229779
  H        18.6248310668        7.8155665951        0.5717801616
  C        17.8516498198       17.8513125580       11.3882209009
  H        18.6265483676       18.6263565951       11.3881367117
 Xe        -0.0074081677       10.7997290451       10.7997290505
