     409
 i =     150, E =    -5183.7506550367
  N         2.6810734119        5.2100987776       16.0201963404
  C         1.3632604932        5.4799205743       16.2887630836
  N        13.4869623417        5.2032231410        5.2032310349
  C        12.1704250784        5.4744122358        5.4744024267
  N        19.3685122815       17.5670554732       16.0107450844
  C        20.6864631627       17.2990390140       16.2834387022
  N         8.5412500359       17.5739570273        5.2075817783
  C         9.8582227615       17.3020690141        5.4762988217
  N        19.3537172941        5.2005016089        6.7564244223
  C        20.6714447688        5.4744894937        6.4899944118
  N         8.5412666339        5.2075688758       17.5739614424
  C         9.8582515287        5.4762923452       17.3020804906
  N         2.6787386544       17.5760834935        6.7660481154
  C         1.3614565993       17.3039381890        6.4950638582
  N        13.5041205484       17.5696562446       17.5696562140
  C        12.1865814789       17.3003873558       17.3003804217
  N        15.6360165181        3.0447952184        5.2021956036
  C        15.9068807262        1.7274072454        5.4731618922
  N        15.6507321293       13.8615965968       16.0120796391
  C        15.9201260164       12.5446960788       16.2822360818
  N        15.6543772552       19.7261714002       17.5686302052
  C        15.9206858490       21.0443542383       17.2968739356
  N        15.6409027399        8.9083182162        6.7576384412
  C        15.9117919304       10.2248889336        6.4873057978
  N         6.3908617559       19.7358544288        5.2096833367
  C         6.1184993171       21.0532148391        5.4798439780
  N         6.3920139314        8.9147964392       16.0180728999
  C         6.1234551479       10.2316116630       16.2887933714
  N         6.3895445865        3.0539133635       17.5761788301
  C         6.1214379470        1.7361923976       17.3049827783
  N         6.3892997702       13.8675337309        6.7642658304
  C         6.1184791991       12.5510868619        6.4940446637
  N         4.8341488001       16.0201843253        3.0526157043
  C         5.1061864031       16.2899722242        1.7352779350
  N         4.8335082285        5.2093599915       13.8689819562
  C         5.1029068803        5.4791190070       12.5519067016
  N        17.2088625392       16.0116927901       19.7278681819
  C        16.9354102457       16.2806828077       21.0453803869
  N        17.1959271623        5.2012369211        8.9070782153
  C        16.9265934140        5.4714818447       10.2241446242
  N         4.8358690762        6.7661848423       19.7340450486
  C         5.1036056113        6.4959689084       21.0521971093
  N         4.8377556429       17.5751419372        8.9154956162
  C         5.1088885371       17.3049028364       10.2321594182
  N        17.1930652529        6.7570699042        3.0458968706
  C        16.9226993285        6.4876568161        1.7283082158
  N        17.2073828492       17.5670360963       13.8609779477
  C        16.9360600642       17.2970179274       12.5441606811
  N         4.8264287376        3.0525470971        6.7645782302
  C         5.0981490183        1.7351329468        6.4946285563
  N         4.8420996615       13.8688634336       17.5751769119
  C         5.1110761814       12.5518277526       17.3050039444
  N        17.2015177861       19.7279204542        6.7559753185
  C        16.9279183305       21.0452871748        6.4868855869
  N        17.2032948549        8.9070759215       17.5676589857
  C        16.9340907385       10.2241257736       17.2971830359
  N         4.8436000309       19.7341501409       16.0186291590
  C         5.1116694732       21.0522324738       16.2886399183
  N         4.8292599081        8.9155466030        5.2093721030
  C         5.1008080520       10.2322220563        5.4792222096
  N        17.2003769289        3.0462295923       16.0108976329
  C        16.9300778785        1.7285376949       16.2800728701
  N        17.2003808056       13.8608877835        5.2017705529
  C        16.9286634210       12.5441359236        5.4715769298
  N         2.6878046593       16.0212148807       17.5774631426
  C         1.3701652193       16.2899884497       17.3052039703
  N        13.4950140107       16.0136651716        6.7588422718
  C        12.1782053391       16.2846094954        6.4896314002
  N        19.3630962509       16.0124861609        5.2023357428
  C        20.6801592006       16.2843273746        5.4753765902
  N         8.5474617558       16.0174471105       16.0174571399
  C         9.8646730426       16.2868831186       16.2868739447
  N        19.3594972334        6.7579962251       17.5691770453
  C        20.6780238084        6.4907393065       17.3000687542
  N         8.5358512994        6.7626746381        6.7626957214
  C         9.8521527046        6.4916106312        6.4916017932
  N         2.6718352665        6.7673405815        5.2116819320
  C         1.3543622924        6.4964423478        5.4813397335
  N        13.4950648827        6.7588277490       16.0136760356
  C        12.1782503907        6.4896224095       16.2846212954
  N        15.6451867549        5.2004888410       19.7258795460
  C        15.9119985124        5.4718107614       21.0441353700
  N        15.6473084410       16.0122531762        8.9082295173
  C        15.9184033985       16.2822650869       10.2248502106
  N        15.6445262363       17.5669471662        3.0449304211
  C        15.9152355939       17.2955560677        1.7275719838
  N        15.6445198815        6.7577125375       13.8616864877
  C        15.9135698002        6.4872289667       12.5447716656
  N         6.3814510458        5.2080556563        3.0535603794
  C         6.1128530431        5.4790089415        1.7360159847
  N         6.3957256286       16.0182277689       13.8675760846
  C         6.1252497909       16.2886883009       12.5510418066
  N         6.3988788843       17.5747404909       19.7356907690
  C         6.1270989359       17.3041696979       21.0532285274
  N         6.3857504093        6.7643519812        8.9149313326
  C         6.1167917921        6.4939280895       10.2316942296
  N        19.3595448643       17.5691859094        6.7580034090
  C        20.6780798657       17.3000883354        6.4907366264
  N         8.5490757713       17.5736606727       17.5736591611
  C         9.8659173342       17.3023295159       17.3023167892
  N         2.6718260183        5.2116549712        6.7673379956
  C         1.3543537627        5.4813245644        6.4964463045
  N        13.4953786192        5.2029762494       17.5688921977
  C        12.1783788630        5.4742430168       17.2998000130
  N         2.6878085019       17.5774513624       16.0212011168
  C         1.3701705891       17.3052038339       16.2899816065
  N        13.4953286706       17.5688880154        5.2029835312
  C        12.1783405988       17.2997810774        5.4742585677
  N        19.3630480764        5.2023340048       16.0124835320
  C        20.6801012982        5.4753838157       16.2843131528
  N         8.5334060157        5.2070146662        5.2070167521
  C         9.8506071740        5.4762948911        5.4762793594
  N         6.3988398667       19.7356524406       17.5748290587
  C         6.1271598093       21.0531836719       17.3041339438
  N         6.3858600170        8.9149631813        6.7642346951
  C         6.1167315507       10.2317229954        6.4939825015
  N         6.3814940614        3.0535377696        5.2081501922
  C         6.1127828565        1.7359889824        5.4789697407
  N         6.3956207598       13.8676042811       16.0181083895
  C         6.1253200841       12.5510664170       16.2887435965
  N        15.6445509818        3.0449491678       17.5669406868
  C        15.9152471525        1.7275900512       17.2955500750
  N        15.6445015072       13.8616691585        6.7577072063
  C        15.9135595998       12.5447516697        6.4872281100
  N        15.6451696969       19.7258936116        5.2004846220
  C        15.9119931335       21.0441472209        5.4718084743
  N        15.6473179032        8.9082214455       16.0122512426
  C        15.9184082230       10.2248424753       16.2822577456
  N        17.2015253651        6.7559794877       19.7279120263
  C        16.9279237620        6.4868886010       21.0452760475
  N        17.2032861516       17.5676723124        8.9070836784
  C        16.9340785181       17.2971918893       10.2241301255
  N         4.8263833411        6.7644807935        3.0525896028
  C         5.0982236188        6.4946610499        1.7351747440
  N         4.8421931392       17.5752815662       13.8688367360
  C         5.1110075849       17.3049363895       12.5518078749
  N        17.2003631024       16.0109016632        3.0462172850
  C        16.9300692541       16.2800762689        1.7285188844
  N        17.2003937894        5.2017822523       13.8609043761
  C        16.9286734150        5.4715826999       12.5441547009
  N         4.8436353468       16.0185436272       19.7342064689
  C         5.1115990960       16.2886704060       21.0522906529
  N         4.8291712809        5.2094721904        8.9155191172
  C         5.1008742836        5.4791508779       10.2321994060
  N        17.2088626051       19.7278866362       16.0116932722
  C        16.9354134845       21.0454008847       16.2806790080
  N        17.1959226338        8.9070559624        5.2012433295
  C        16.9265887220       10.2241237704        5.4714889074
  N         4.8340892991        3.0525702879       16.0201943646
  C         5.1062306490        1.7352341347       16.2899122570
  N         4.8336059662       13.8690071503        5.2092797327
  C         5.1028409896       12.5519365256        5.4791810490
  N        17.1930637225        3.0459122176        6.7570729574
  C        16.9226952203        1.7283260480        6.4876582628
  N        17.2073856410       13.8609616171       17.5670412890
  C        16.9360673651       12.5441446832       17.2970171921
  N         4.8359325973       19.7340260411        6.7661990959
  C         5.1035557736       21.0521755495        6.4958946278
  N         4.8376497969        8.9155166350       17.5750524392
  C         5.1089522938       10.2321838251       17.3049661369
  N        19.3537248233        6.7564342011        5.2004853483
  C        20.6714472691        6.4900033632        5.4744781726
  N         8.5416641188        6.7625807206       16.0171172613
  C         9.8583874984        6.4913305168       16.2863476375
  N         2.6786658211        6.7660336941       17.5760787790
  C         1.3613832535        6.4950654212       17.3039269970
  N        13.4888007907        6.7589663435        6.7589726572
  C        12.1717388855        6.4897639898        6.4897519812
  N         2.6811464879       16.0201910199        5.2101174127
  C         1.3633302695       16.2887732610        5.4799248880
  N        13.5014026673       16.0140308301       16.0140314791
  C        12.1849204640       16.2851074377       16.2850995668
  N        19.3685146067       16.0107405160       17.5670514270
  C        20.6864630559       16.2834400320       17.2990329760
  N         8.5416379217       16.0171111108        6.7625773514
  C         9.8583413369       16.2863469011        6.4913187577
  N         6.3896036461       17.5761586173        3.0539432535
  C         6.1214014119       17.3050413663        1.7362245440
  N         6.3892343253        6.7643304500       13.8675119171
  C         6.1185708419        6.4939872367       12.5510500523
  N         6.3907953594        5.2096456445       19.7358549684
  C         6.1185420139        5.4799095110       21.0532231517
  N         6.3920861623       16.0181403096        8.9147793415
  C         6.1233660545       16.2887297082       10.2315811449
  N        15.6543800936       17.5686335575       19.7261461435
  C        15.9206849693       17.2968794173       21.0443318398
  N        15.6409027403        6.7576266556        8.9083410904
  C        15.9117940535        6.4872960532       10.2249125236
  N        15.6360172777        5.2021934912        3.0447779854
  C        15.9068828683        5.4731598662        1.7273920699
  N        15.6507302150       16.0120715873       13.8616083213
  C        15.9201227933       16.2822381534       12.5447102116
 Zn        14.3550241565       14.7194627578       14.7194705905
 Cl        13.1233495252       13.4883275586       13.4883117646
 Zn        14.3436073232        3.9073628747        3.9073605193
 Cl        13.1072864049        2.6786075529        2.6786111362
 Zn         3.5411735907       14.7269953281        3.9145297814
 Cl         2.3073060712       13.4952492251        2.6858773586
 Zn         3.5410416643        3.9144843691       14.7269768419
 Cl         2.3072497079        2.6857938330       13.4951718120
 Zn         7.6835636478        8.0570535429       14.7226348714
 Cl         8.9162087471        9.2875512568       13.4915593334
 Zn         7.6811493871       18.8713475688        3.9151268257
 Cl         8.9167937123       20.0978007956        2.6828858991
 Zn        18.4902945260        8.0486175241        3.9060244099
 Cl        19.7190217278        9.2817076980        2.6739669636
 Zn        18.5015650165       18.8623401402       14.7197605450
 Cl        19.7326505713       20.0893845945       13.4833084273
 Zn         7.6835530748       14.7226562303        8.0570323378
 Cl         8.9161974477       13.4915858673        9.2875220604
 Zn         7.6811474514        3.9150147311       18.8713865726
 Cl         8.9168861848        2.6828377929       20.0978549768
 Zn        18.5015702271       14.7197545828       18.8623379368
 Cl        19.7326498191       13.4832998805       20.0893845351
 Zn        18.4902982975        3.9060322313        8.0486204590
 Cl        19.7190076240        2.6739620779        9.2817203550
 Zn        14.3463628063        8.0530317589        8.0530492134
 Cl        13.1168730973        9.2851341549        9.2851254928
 Zn        14.3656347966       18.8642758290       18.8642616519
 Cl        13.1314870918       20.0945034550       20.0945039979
 Zn         3.5438459181        8.0576075641       18.8708272853
 Cl         2.3148444761        9.2932024111       20.1006931278
 Zn         3.5439838429       18.8708247546        8.0576008922
 Cl         2.3148775774       20.1006345790        9.2931331461
 Zn        14.3504474352       14.7194265449        8.0529782033
 Cl        13.1201354739       13.4879719551        9.2850423451
 Zn        14.3524702963        3.9066577540       18.8627166142
 Cl        13.1187153754        2.6773572999       20.0935899167
 Zn         3.5525901120       14.7265870923       18.8715390529
 Cl         2.3190800311       13.4950456117       20.1012601247
 Zn         3.5327703120        3.9153854845        8.0573254692
 Cl         2.3032044185        2.6865031991        9.2930110462
 Zn         7.6800179153        8.0572198579        8.0571891083
 Cl         8.9132869734        9.2876494119        9.2876549568
 Zn         7.6880676121       18.8698232925       18.8698638646
 Cl         8.9281497581       20.0971010152       20.0970736250
 Zn        18.4957605116        8.0488289089       18.8645889281
 Cl        19.7296327406        9.2820538184       20.0914416327
 Zn        18.4957813901       18.8646172602        8.0488404774
 Cl        19.7296742590       20.0914684807        9.2820667054
 Zn        14.3504837876        8.0529626161       14.7194401152
 Cl        13.1201823623        9.2850269996       13.4879912189
 Zn        14.3524136030       18.8627456043        3.9066464977
 Cl        13.1186869543       20.0936298429        2.6773102865
 Zn         3.5327726522        8.0573166217        3.9153640187
 Cl         2.3031959469        9.2930213173        2.6864916333
 Zn         3.5526097645       18.8715440333       14.7265935907
 Cl         2.3190872665       20.1012565992       13.4950503704
 Zn         7.6873155020       14.7229597036       14.7229241371
 Cl         8.9191924707       13.4917029526       13.4916951257
 Zn         7.6741146765        3.9128626331        3.9128985132
 Cl         8.9056291225        2.6816248909        2.6816098970
 Zn        18.4966455016       14.7200308982        3.9077535414
 Cl        19.7223403866       13.4836499161        2.6756162596
 Zn        18.4966296476        3.9077631954       14.7200307826
 Cl        19.7223090525        2.6756231440       13.4836539009
 Zn         5.6157722471        5.9897480572       16.7992315291
 Zn        16.4365846734       16.7876199426       16.7876259824
 Zn        16.4164773703        5.9783069722        5.9782939338
 Zn         5.6158297948       16.7993040050        5.9897151846
 Zn         5.6075007123        5.9896033432        5.9896343442
 Zn        16.4287267828       16.7878104621        5.9786620452
 Zn         5.6219770516       16.7991514575       16.7992038667
 Zn        16.4287481642        5.9786700813       16.7878208130
  N         3.4262965326        5.9880876161       16.7990697142
  N        14.2341486177        5.9806307571        5.9806519614
  N        18.6222937534       16.7875899670       16.7875889131
  N         7.7953108922       16.7961998540        5.9858724500
  N        18.6071324544        5.9763939013        5.9763796461
  N         7.7953305642        5.9858628827       16.7962052010
  N         3.4263702736       16.7990511564        5.9881266892
  N        14.2492883179       16.7913062082       16.7913138563
  N        16.4146220685        3.7917732930        5.9791603288
  N        16.4296149351       14.6074519974       16.7894170555
  N        16.4334337033       18.9803316577       16.7912022078
  N        16.4179872265        8.1613360613        5.9795035383
  N         5.6145684214       18.9883686924        5.9883184764
  N         5.6145157627        8.1689950783       16.7966602398
  N         5.6109887076        3.7997977662       16.7985093756
  N         5.6121102614       14.6147474546        5.9867555508
  N         5.6110783922       16.7984670353        3.7998361083
  N         5.6120009928        5.9868468122       14.6147178603
  N        16.4334344269       16.7912024911       18.9803101655
  N        16.4179892000        5.9794944354        8.1613582125
  N         5.6144664623        5.9882542943       18.9883799654
  N         5.6146328409       16.7967625087        8.1689693557
  N        16.4146218985        5.9791570542        3.7917550148
  N        16.4296165926       16.7894084083       14.6074682218
  N         5.6034689313        3.7996168701        5.9862184142
  N         5.6195110977       14.6147370679       16.7967760221
  N        16.4251101926       18.9802573308        5.9773932184
  N        16.4248596349        8.1613085828       16.7899836118
  N         5.6219705934       18.9883166146       16.7966287859
  N         5.6072171893        8.1690869004        5.9868161214
  N        16.4226290085        3.7920096289       16.7895968448
  N        16.4231239201       14.6074413752        5.9799980170
  N         3.4340713243       16.8001811653       16.8001805457
  N        14.2417053763       16.7907513117        5.9804345541
  N        18.6149730535       16.7904710721        5.9790264740
  N         7.8022336746       16.7959659137       16.7959909208
  N        18.6149320252        5.9790125274       16.7904719952
  N         7.7883262947        5.9853753666        5.9854256225
  N         3.4183843153        5.9895132500        5.9895214188
  N        14.2417583195        5.9804216578       16.7907577043
  N        16.4251244251        5.9773950055       18.9802476752
  N        16.4248509341       16.7899908598        8.1613166369
  N        16.4226049148       16.7896005557        3.7919946058
  N        16.4231435451        5.9800070149       14.6074575420
  N         5.6033549148        5.9860504518        3.7996520963
  N         5.6196786253       16.7969580033       14.6147109584
  N         5.6220639841       16.7964780607       18.9883655791
  N         5.6070608095        5.9869877599        8.1690596840
  C        11.0240028639       15.7363395557       15.7363285651
  H        11.0229106666       14.9613548316       14.9613456730
  C        11.0096521646        4.9257372429        4.9257197732
  H        11.0084588969        4.1508506887        4.1508447869
  C         0.2039109392       15.7377030485        4.9291917367
  H         0.2080025703       14.9629384253        4.1545302675
  C         0.2038482577        4.9291909542       15.7376826719
  H         0.2079294936        4.1545245605       14.9629297200
  C        11.0183595395        7.0401416436       15.7357086802
  H        11.0183946876        7.8151189259       14.9607505153
  C        11.0183577443       17.8504821447        4.9257088780
  H        11.0185115420       18.6253572894        4.1508626799
  C         0.1933504630        7.0439535502        4.9306342273
  H         0.1957166953        7.8209931580        4.1579211967
  C         0.2087315329       17.8523621982       15.7392850464
  H         0.2109452254       18.6293142277       14.9665021803
  C        11.0182998609       15.7356849142        7.0401581598
  H        11.0182249901       14.9607460435        7.8151276018
  C        11.0183972602        4.9257164514       17.8504794352
  H        11.0185508003        4.1508611329       18.6253617294
  C         0.2087333516       15.7392869467       17.8523567983
  H         0.2109432179       14.9664976690       18.6293044394
  C         0.1933288453        4.9306319110        7.0439518011
  H         0.1956299425        4.1579185781        7.8209978334
  C        11.0128194408        7.0404532384        7.0404345177
  H        11.0140471504        7.8154149768        7.8153970969
  C        11.0272281457       17.8507555303       17.8507460329
  H        11.0287396512       18.6255992838       18.6255990256
  C         0.1984191794        7.0422867911       17.8510549470
  H         0.1989228057        7.8173603237       18.6260358793
  C         0.1984825787       17.8510669584        7.0422739739
  H         0.1990161076       18.6260388376        7.8173571565
  C        15.3692335989       11.3851298824       15.7327556370
  H        14.5938807584       11.3856554612       14.9581834683
  C        15.3590318557        0.5653584797        4.9246804801
  H        14.5825392299        0.5667833327        4.1512467467
  C         4.5518901466       11.3925759134        4.9297866373
  H         3.7764259690       11.3932439121        4.1555268409
  C         4.5590051510        0.5732427654       15.7408826655
  H         3.7824842871        0.5744681942       14.9674233816
  C        15.3631848144       11.3852362046        7.0372559261
  H        14.5886908019       11.3857884277        7.8126673149
  C        15.3681630089        0.5654875433       17.8446938710
  H        14.5926797543        0.5667721899       18.6191504487
  C         4.5608747315       11.3925058667       17.8552225326
  H         3.7864151300       11.3931878557       18.6305087128
  C         4.5513863254        0.5731587210        7.0440792539
  H         3.7758731691        0.5743143261        7.8185301021
  C         6.6739347925       11.3909195837       15.7386285835
  H         7.4482230334       11.3903032545       14.9629994710
  C         6.6635288529        0.5759027746        4.9295845862
  H         7.4368931230        0.5789716827        4.1533123145
  C        17.4768396195       11.3836465455        4.9215855793
  H        18.2511702986       11.3829306145        4.1461980541
  C        17.4801777881        0.5682375110       15.7302056579
  H        18.2533796846        0.5713434383       14.9538365114
  C         6.6678332582       11.3910013622        7.0434974116
  H         7.4431065273       11.3905378293        7.8181237073
  C         6.6727501095        0.5759973840       17.8537217316
  H         7.4468660143        0.5791447244       18.6292085597
  C        17.4850437047       11.3837350286       17.8463056443
  H        18.2605186732       11.3831484859       18.6205528047
  C        17.4734547027        0.5680428224        7.0367320048
  H        18.2476482118        0.5711795327        7.8121262585
  C        15.3692284877       15.7327563710       11.3851437053
  H        14.5938823136       14.9581823021       11.3856845720
  C        15.3590338507        4.9246832223        0.5653355300
  H        14.5825372031        4.1512529282        0.5667429489
  C         4.5589219252       15.7409618368        0.5733106296
  H         3.7824384683       14.9674529449        0.5745810372
  C         4.5520174238        4.9296857870       11.3925550772
  H         3.7764858664        4.1554779017       11.3932741691
  C         6.6738184443       15.7385102695       11.3908863975
  H         7.4481646490       14.9629594715       11.3902031874
  C         6.6636150050        4.9296697883        0.5759084253
  H         7.4369259357        4.1533500192        0.5789621147
  C        17.4801697752       15.7302110870        0.5682188211
  H        18.2533724440       14.9538385257        0.5712975567
  C        17.4768498883        4.9215833081       11.3836744291
  H        18.2511784492        4.1461972193       11.3829897606
  C        15.3631864576        7.0372519036       11.3852583458
  H        14.5886917503        7.8126609290       11.3858274401
  C        15.3681618454       17.8446995279        0.5654580457
  H        14.5926818297       18.6191600504        0.5667199497
  C         4.5514832089        7.0441657205        0.5732156749
  H         3.7759249185        7.8185646127        0.5744635977
  C         4.5607485343       17.8551235062       11.3924791193
  H         3.7863582116       18.6304651380       11.3931821393
  C         6.6679427426        7.0433849031       11.3909568971
  H         7.4431607577        7.8180880702       11.3903824121
  C         6.6726695928       17.8537901427        0.5760309299
  H         7.4468371535       18.6292355881        0.5791972962
  C        17.4734599256        7.0367326994        0.5680286599
  H        18.2476566514        7.8121252553        0.5711434845
  C        17.4850344763       17.8463139682       11.3837551144
  H        18.2605086206       18.6205554667       11.3831957733
 Xe        21.2384774283       10.7944260218       10.7944261662
