     409
 i =     150, E =    -5183.7578311956
  N         2.9445927341        5.2075756678       16.0302054934
  C         1.6259658795        5.4763662311       16.2958781049
  N        13.7476403108        5.1969373862        5.1969062862
  C        12.4303657646        5.4681494453        5.4681361645
  N        19.6406906258       17.5719633989       16.0155757093
  C        20.9586598799       17.3051749495       16.2890653906
  N         8.8065518626       17.5822639715        5.2212586611
  C        10.1245270181       17.3086852221        5.4853677216
  N        19.6096671648        5.1966411277        6.7524524043
  C        20.9273874990        5.4721835347        6.4881351857
  N         8.8065776323        5.2219834731       17.5829797800
  C        10.1245063856        5.4852635735       17.3085334700
  N         2.9386695945       17.5838699572        6.7652698384
  C         1.6219980308       17.3111131311        6.4931375381
  N        13.7772245724       17.5741085133       17.5741770827
  C        12.4586868848       17.3058448522       17.3058349901
  N        15.9000115789        3.0385002012        5.1946212689
  C        16.1711521216        1.7211405654        5.4655351278
  N        15.9252036800       13.8628850728       16.0150348618
  C        16.1930413270       12.5451746338       16.2857422445
  N        15.9305148087       19.7251096849       17.5693573571
  C        16.1958111787       21.0430864601       17.2969608130
  N        15.9041225801        8.9062870728        6.7524543139
  C        16.1772715183       10.2235833788        6.4838749306
  N         6.6504616723       19.7433832721        5.2214865529
  C         6.3764421924       21.0606786064        5.4899961237
  N         6.6467153231        8.9187125293       16.0206776707
  C         6.3786747379       10.2365235402       16.2905351228
  N         6.6587337847        3.0622342218       17.5898066300
  C         6.3934456646        1.7434652807       17.3186924051
  N         6.6562155352       13.8765685702        6.7571644011
  C         6.3852108235       12.5592251948        6.4893427766
  N         5.1041986065       16.0327844422        3.0581260532
  C         5.3780816140       16.3021401999        1.7411386441
  N         5.0933625780        5.2089435179       13.8763773481
  C         5.3636105293        5.4790938760       12.5586787126
  N        17.4839480611       16.0119784515       19.7269566221
  C        17.2109097567       16.2802295462       21.0444481656
  N        17.4581853120        5.1953470257        8.9041503541
  C        17.1923488114        5.4670480607       10.2220906304
  N         5.0922075221        6.7748210793       19.7404864360
  C         5.3593829558        6.5049736950       21.0588558590
  N         5.0927154920       17.5793012015        8.9211621887
  C         5.3648785474       17.3089591260       10.2383146837
  N        17.4552393866        6.7513219906        3.0409496445
  C        17.1867053266        6.4819902878        1.7229692958
  N        17.4821844336       17.5698852836       13.8614384950
  C        17.2094495326       17.3013596485       12.5441122049
  N         5.0798483154        3.0582303162        6.7721624238
  C         5.3526624544        1.7403291477        6.5041998925
  N         5.1097799770       13.8767941712       17.5851700127
  C         5.3729078724       12.5586573280       17.3116526080
  N        17.4660358676       19.7254277364        6.7510820683
  C        17.1919353477       21.0423864147        6.4819806985
  N        17.4722652612        8.9057334523       17.5733213528
  C        17.2046644713       10.2236296430       17.3028640411
  N         5.1152985399       19.7423277068       16.0308496060
  C         5.3834188180       21.0603361864       16.3009072866
  N         5.0878949016        8.9204377186        5.2214322380
  C         5.3616297475       10.2382689358        5.4857881821
  N        17.4741034576        3.0431874434       16.0102500387
  C        17.2056105045        1.7251703460       16.2795512582
  N        17.4726731914       13.8596710201        5.2000902017
  C        17.1994150150       12.5425333061        5.4690640901
  N         2.9582792814       16.0306088698       17.5867138058
  C         1.6403719263       16.2961704325       17.3122538540
  N        13.7640288757       16.0122471201        6.7550220065
  C        12.4462134468       16.2858576240        6.4905834076
  N        19.6286836398       16.0163849667        5.1994688070
  C        20.9453758767       16.2891073214        5.4719122028
  N         8.8166089973       16.0239902512       16.0241063915
  C        10.1348312391       16.2927990390       16.2928204508
  N        19.6230999900        6.7540473800       17.5740796752
  C        20.9414886952        6.4873635213       17.3056488594
  N         8.7948361449        6.7584324387        6.7583945021
  C        10.1118242958        6.4868291758        6.4867995839
  N         2.9259943910        6.7712922667        5.2158336987
  C         1.6082352778        6.4973020760        5.4812824007
  N        13.7639857719        6.7557028910       16.0128925683
  C        12.4461596314        6.4904876602       16.2856980327
  N        15.9111086371        5.1941556440       19.7215321418
  C        16.1764837310        5.4653693169       21.0400094136
  N        15.9176054806       16.0165249977        8.9077180963
  C        16.1890669560       16.2865860752       10.2249019900
  N        15.9167880514       17.5649970751        3.0409699626
  C        16.1891957212       17.2952556844        1.7237093913
  N        15.9168964316        6.7566361629       13.8619014810
  C        16.1837807568        6.4854807236       12.5440699079
  N         6.6332370156        5.2143164574        3.0589403849
  C         6.3676571916        5.4872973899        1.7412790748
  N         6.6601205953       16.0247902644       13.8738921966
  C         6.3857469478       16.2926601026       12.5568559384
  N         6.6704899401       17.5871556392       19.7441754000
  C         6.3989909625       17.3174163719       21.0618668522
  N         6.6521434808        6.7693596675        8.9223098408
  C         6.3838623143        6.4954165646       10.2391566199
  N        19.6231316751       17.5740651878        6.7541716136
  C        20.9415164277       17.3057243922        6.4874124661
  N         8.8201711497       17.5806317796       17.5806999801
  C        10.1373578359       17.3089212576       17.3089186948
  N         2.9259960866        5.2159049670        6.7712409997
  C         1.6082352843        5.4813441637        6.4972504786
  N        13.7620762253        5.1980105055       17.5665109405
  C        12.4448067490        5.4737359023       17.3008523385
  N         2.9582836141       17.5866827340       16.0306692813
  C         1.6403723237       17.3122284294       16.2962109370
  N        13.7621145815       17.5658738821        5.1973066020
  C        12.4448573075       17.3010091582        5.4738350849
  N        19.6286428991        5.1993581771       16.0164113607
  C        20.9453439658        5.4718676830       16.2890373105
  N         8.7908696365        5.2026417991        5.2025703570
  C        10.1092636872        5.4708248500        5.4707801047
  N         6.6702734829       19.7441868742       17.5873526510
  C         6.3989578283       21.0618826706       17.3173965768
  N         6.6522763922        8.9223477617        6.7692222877
  C         6.3838914660       10.2391947849        6.4954068349
  N         6.6330709684        3.0590242884        5.2140608560
  C         6.3676656564        1.7413573790        5.4872728035
  N         6.6603697408       13.8738207414       16.0250815052
  C         6.3857312995       12.5567943220       16.2926390690
  N        15.9168490896        3.0409826909       17.5650217956
  C        16.1891824884        1.7237082725       17.2951940221
  N        15.9168926398       13.8618793226        6.7566415139
  C        16.1837785346       12.5440671968        6.4854967294
  N        15.9111332955       19.7215509717        5.1941786044
  C        16.1765062642       21.0400408653        5.4654035008
  N        15.9175263603        8.9077062220       16.0165796351
  C        16.1890622903       10.2248803509       16.2865491591
  N        17.4659626192        6.7510943674       19.7254048751
  C        17.1918923499        6.4819572003       21.0423476309
  N        17.4723896496       17.5732399284        8.9057498271
  C        17.2046850007       17.3028927400       10.2236572897
  N         5.0799842238        6.7723652821        3.0581191123
  C         5.3526334884        6.5042110673        1.7402237022
  N         5.1095654406       17.5849259969       13.8768925625
  C         5.3729465625       17.3116898569       12.5587459051
  N        17.4739812556       16.0101394887        3.0431758181
  C        17.2055923905       16.2795807005        1.7251789351
  N        17.4727168130        5.2001495905       13.8596964874
  C        17.1994380472        5.4690680128       12.5425318620
  N         5.1154932211       16.0306639167       19.7423510740
  C         5.3834379404       16.3009349853       21.0603305207
  N         5.0877759117        5.2215594460        8.9203811768
  C         5.3616131499        5.4857971014       10.2382304239
  N        17.4840438019       19.7269060917       16.0120921139
  C        17.2109012775       21.0444101775       16.2802121941
  N        17.4581337702        8.9041922193        5.1952766223
  C        17.1923474702       10.2221233825        5.4670385280
  N         5.1039433114        3.0581928384       16.0328968794
  C         5.3780132649        1.7411955431       16.3020777365
  N         5.0935231364       13.8763479893        5.2088666383
  C         5.3636725186       12.5586701136        5.4791020832
  N        17.4552854105        3.0410292010        6.7512658185
  C        17.1867118411        1.7230402269        6.4819970607
  N        17.4820943880       13.8613708479       17.5699886457
  C        17.2094591725       12.5440550236       17.3013368864
  N         5.0919809065       19.7405133562        6.7746189490
  C         5.3593626403       21.0589156925        6.5049944756
  N         5.0930047070        8.9211523805       17.5795555133
  C         5.3648715736       10.2382730499       17.3088949868
  N        19.6096626503        6.7524961918        5.1965888909
  C        20.9273855293        6.4881815412        5.4721308348
  N         8.8085452321        6.7756627585       16.0253107008
  C        10.1257007478        6.5004370191       16.2917662020
  N         2.9386535596        6.7651826528       17.5839043627
  C         1.6219828963        6.4931137306       17.3110461547
  N        13.7503783722        6.7533189598        6.7532885045
  C        12.4323645183        6.4841840191        6.4841722021
  N         2.9446093823       16.0301614744        5.2076533377
  C         1.6259756385       16.2959409885        5.4763882568
  N        13.7730137715       16.0180781008       16.0181528368
  C        12.4559967884       16.2898200625       16.2898168277
  N        19.6406920355       16.0155394983       17.5719913925
  C        20.9586607949       16.2890368354       17.3051958835
  N         8.8085471518       16.0245788006        6.7748825697
  C        10.1257334730       16.2919075734        6.5005167704
  N         6.6589328449       17.5897050631        3.0621868094
  C         6.3934978056       17.3187585657        1.7434152133
  N         6.6561206547        6.7572052225       13.8765843862
  C         6.3851749761        6.4893224387       12.5592246437
  N         6.6506784703        5.2216405717       19.7433994679
  C         6.3764511216        5.4899639684       21.0606511978
  N         6.6464381598       16.0204537673        8.9186919608
  C         6.3786869585       16.2906053657       10.2365394958
  N        15.9304022660       17.5692318388       19.7251375381
  C        16.1958134563       17.2969777052       21.0431091407
  N        15.9041797998        6.7525322972        8.9062608239
  C        16.1772798842        6.4838840089       10.2235610407
  N        15.8999569471        5.1946825724        3.0384466569
  C        16.1711373750        5.4655285370        1.7210843797
  N        15.9253158774       16.0149189860       13.8629316749
  C        16.1930441044       16.2857588717       12.5452199841
 Zn        14.6306866265       14.7234998596       14.7235256331
 Cl        13.3947823966       13.4929765579       13.4929807309
 Zn        14.6076501719        3.9021305601        3.9021058673
 Cl        13.3702867796        2.6723106672        2.6723084623
 Zn         3.8061724814       14.7411832017        3.9119790921
 Cl         2.5728450196       13.5118958262        2.6777869258
 Zn         3.8057744416        3.9119555741       14.7411022353
 Cl         2.5726938263        2.6775916065       13.5116963582
 Zn         7.9427247343        8.0594619108       14.7274390629
 Cl         9.1449809166        9.3000328613       13.4727258838
 Zn         7.9476340976       18.8806713523        3.9354037541
 Cl         9.1841981556       20.1109676164        2.7042750410
 Zn        18.7486720622        8.0443513439        3.9013672850
 Cl        19.9812764458        9.2754919339        2.6680028353
 Zn        18.7752946009       18.8640524588       14.7207764553
 Cl        20.0073178318       20.0925829876       13.4841801581
 Zn         7.9427856550       14.7274442086        8.0593889761
 Cl         9.1450136201       13.4727877457        9.3000580722
 Zn         7.9475914279        3.9354053735       18.8807149693
 Cl         9.1842076455        2.7042101233       20.1108744369
 Zn        18.7752711831       14.7207442216       18.8640799263
 Cl        20.0073327456       13.4841808287       20.0925982656
 Zn        18.7487163723        3.9014156441        8.0443114286
 Cl        19.9812667204        2.6680126604        9.2754694004
 Zn        14.6116003868        8.0477249608        8.0477009234
 Cl        13.3891625089        9.2847280704        9.2847244425
 Zn        14.6448885670       18.8670637015       18.8670904630
 Cl        13.4126920667       20.0997244168       20.0997139106
 Zn         3.7968462430        8.0613829223       18.8742271233
 Cl         2.5672553401        9.2995300432       20.1032874076
 Zn         3.7968646813       18.8742637509        8.0614111317
 Cl         2.5672656554       20.1033211497        9.2995334550
 Zn        14.6238471139       14.7219693136        8.0509928196
 Cl        13.3883780549       13.4935737663        9.2840264510
 Zn        14.6199642038        3.9006781966       18.8559292976
 Cl        13.3862881067        2.6673737593       20.0858325821
 Zn         3.8244752064       14.7396301879       18.8797433072
 Cl         2.5909957580       13.5075011873       20.1122586148
 Zn         3.7909803101        3.9295090424        8.0630021998
 Cl         2.5637462350        2.7002749935        9.3045689652
 Zn         7.9471868258        8.0576709149        8.0576447038
 Cl         9.2626081723        9.2472424819        9.2471609732
 Zn         7.9606822121       18.8768971295       18.8768976258
 Cl         9.2033715789       20.1042485250       20.1043414071
 Zn        18.7618435825        8.0450963384       18.8700864202
 Cl        19.9936966200        9.2761547127       20.1036844599
 Zn        18.7618864737       18.8701331708        8.0451730047
 Cl        19.9937348064       20.1037508007        9.2762324860
 Zn        14.6238106502        8.0510398020       14.7219903768
 Cl        13.3883850215        9.2840252210       13.4934996947
 Zn        14.6199910050       18.8559438861        3.9006372303
 Cl        13.3862941989       20.0859112015        2.6674170649
 Zn         3.7910171759        8.0630522888        3.9294493750
 Cl         2.5637234828        9.3045394658        2.7002057364
 Zn         3.8244108523       18.8797164796       14.7396922333
 Cl         2.5910052403       20.1123100429       13.5075550805
 Zn         7.9518855848       14.7300344242       14.7301398642
 Cl         9.1697557417       13.4902962248       13.4902501252
 Zn         7.9192080737        3.9132854934        3.9131241969
 Cl         9.1438405654        2.6767013644        2.6767387711
 Zn        18.7682025614       14.7200463286        3.9069874620
 Cl        20.0005713239       13.4855439259        2.6773053485
 Zn        18.7682134804        3.9069422707       14.7200122099
 Cl        20.0005884986        2.6772644179       13.4855011624
 Zn         5.8757404759        5.9959983686       16.8120917506
 Zn        16.7110277447       16.7890367058       16.7891826694
 Zn        16.6731748155        5.9687127072        5.9685837675
 Zn         5.8750259784       16.8118798902        5.9958611042
 Zn         5.8589165713        5.9955742558        5.9954625046
 Zn        16.6987189770       16.7872623628        5.9711046460
 Zn         5.8925944295       16.8125630012       16.8127124203
 Zn        16.6987374058        5.9712827509       16.7874397177
  N         3.6882514384        5.9871616394       16.8088966625
  N        14.4951915342        5.9745465711        5.9745054684
  N        18.8945044517       16.7919662417       16.7919982297
  N         8.0608533440       16.8055742170        6.0007883326
  N        18.8630118380        5.9715928157        5.9715445198
  N         8.0609052246        6.0016175781       16.8063876652
  N         3.6882061034       16.8089047058        5.9872132603
  N        14.5216747516       16.7951961163       16.7952472687
  N        16.6769996826        3.7861336342        5.9724753997
  N        16.7050061171       14.6084637444       16.7919037207
  N        16.7093191950       18.9791891472       16.7919984667
  N        16.6792159988        8.1585018422        5.9729166814
  N         5.8730100954       18.9955433137        5.9985219286
  N         5.8691074784        8.1738303028       16.8005636671
  N         5.8788891658        3.8067574599       16.8119344838
  N         5.8749055397       14.6232350024        5.9830150121
  N         5.8790463830       16.8118951496        3.8066950922
  N         5.8748054380        5.9830518292       14.6232580723
  N        16.7092023512       16.7918575516       18.9792294605
  N        16.6792928377        5.9730212209        8.1584641212
  N         5.8732406880        5.9986861660       18.9955231024
  N         5.8688635155       16.8003840942        8.1738372477
  N        16.6769302708        5.9725657194        3.7860625083
  N        16.7051193293       16.7917742075       14.6085235829
  N         5.8547314890        3.8053407941        5.9915848238
  N         5.8881360057       14.6222089615       16.8068674353
  N        16.6910292306       18.9767785439        5.9720013188
  N        16.6939827668        8.1599521214       16.7950039426
  N         5.8934820182       18.9967302353       16.8091538004
  N         5.8682178985        8.1749079678        5.9975798387
  N        16.6946459414        3.7884790528       16.7877927892
  N        16.6964164193       14.6071372403        5.9789588788
  N         3.7047760889       16.8110443247       16.8110931156
  N        14.5098095664       16.7870254878        5.9732107980
  N        18.8795842591       16.7942595318        5.9753272300
  N         8.0722436729       16.8033096988       16.8033428897
  N        18.8795567131        5.9752347370       16.7942485985
  N         8.0464030348        5.9817943144        5.9817365268
  N         3.6727027463        5.9959591649        5.9958936183
  N        14.5097583164        5.9741264978       16.7878845361
  N        16.6909970800        5.9719792406       18.9767634458
  N        16.6940382557       16.7949870346        8.1599553242
  N        16.6946328028       16.7878085810        3.7884713043
  N        16.6964007085        5.9789485224       14.6071512436
  N         5.8549655782        5.9919083656        3.8052422628
  N         5.8878318345       16.8065187554       14.6222965816
  N         5.8937078892       16.8089278199       18.9967349294
  N         5.8680463099        5.9977677533        8.1748603336
  C        11.2940211683       15.7410317980       15.7410499740
  H        11.2923714665       14.9654691491       14.9655253394
  C        11.2685471805        4.9191394025        4.9191176753
  H        11.2669967550        4.1436451384        4.1436307027
  C         0.4683310265       15.7418145660        4.9239791797
  H         0.4728127967       14.9660500389        4.1486486621
  C         0.4683053532        4.9239338442       15.7417585325
  H         0.4727399465        4.1485501196       14.9660392306
  C        11.2867926359        7.0457686171       15.7381348994
  H        11.2892625159        7.8210288748       14.9623840685
  C        11.2838113579       17.8552002854        4.9288847569
  H        11.2822722995       18.6299918401        4.1524854970
  C         0.4478156250        7.0435018608        4.9266769121
  H         0.4478791232        7.8195244636        4.1515990748
  C         0.4795500874       17.8586525072       15.7422520214
  H         0.4797136500       18.6340608482       14.9665634296
  C        11.2868370009       15.7382495535        7.0458037347
  H        11.2893469026       14.9618359672        7.8203900112
  C        11.2837782609        4.9288158134       17.8550895761
  H        11.2821881616        4.1530909548       18.6305625209
  C         0.4795464373       15.7422160271       17.8586657994
  H         0.4797129315       14.9665239525       18.6340664836
  C         0.4478202129        4.9267354350        7.0434596369
  H         0.4478816353        4.1516600893        7.8194875794
  C        11.2734940205        7.0358987066        7.0358882400
  H        11.2731678988        7.8115333413        7.8115234419
  C        11.2995017393       17.8576315583       17.8576235129
  H        11.3014192146       18.6331693885       18.6331985151
  C         0.4592044412        7.0410416345       17.8584746674
  H         0.4549773434        7.8169086570       18.6337333436
  C         0.4592385084       17.8585483185        7.0410985909
  H         0.4550335655       18.6337648322        7.8170175702
  C        15.6404745608       11.3857561702       15.7356977592
  H        14.8649313713       11.3869468662       14.9601201951
  C        15.6232603301        0.5593735781        4.9153146836
  H        14.8477946928        0.5576190955        4.1396980956
  C         4.8096339912       11.3975332231        4.9343315081
  H         4.0308663188       11.3953642382        4.1620120273
  C         4.8308932699        0.5797696245       15.7505811497
  H         4.0555989977        0.5781115425       14.9746786630
  C        15.6304190069       11.3849190199        7.0355576445
  H        14.8553178133       11.3864665003        7.8115971872
  C        15.6417672362        0.5622555207       17.8462680694
  H        14.8662198673        0.5603226667       18.6218805106
  C         4.8194624563       11.3997155773       17.8618707251
  H         4.0461023014       11.4016153976       18.6396279938
  C         4.8059189999        0.5783371108        7.0551454414
  H         4.0306128373        0.5761513704        7.8308801547
  C         6.9305335736       11.3955327489       15.7388571056
  H         7.7037162880       11.3937303348       14.9609323644
  C         6.9226334141        0.5823811291        4.9384154088
  H         7.6981810181        0.5850541692        4.1627904302
  C        17.7460561547       11.3811543759        4.9172783312
  H        18.5211161565       11.3794296286        4.1412328826
  C        17.7581593426        0.5658170749       15.7289266561
  H        18.5333569034        0.5676074325       14.9530326424
  C         6.9400359434       11.4001899801        7.0376430749
  H         7.7227284955       11.4036900285        7.8055510573
  C         6.9465590709        0.5836955342       17.8682457584
  H         7.7220082583        0.5853085475       18.6438252189
  C        17.7576002776       11.3830716099       17.8525657818
  H        18.5334119630       11.3820837204       18.6278826284
  C        17.7390213248        0.5639369215        7.0330765561
  H        18.5141276701        0.5660562884        7.8091135949
  C        15.6405009643       15.7357213104       11.3857844200
  H        14.8650461171       14.9600594615       11.3869697602
  C        15.6232274024        4.9152891303        0.5593366998
  H        14.8477180303        4.1397130974        0.5575784935
  C         4.8309386238       15.7506032252        0.5797670458
  H         4.0557870415       14.9745591395        0.5781884919
  C         4.8096033455        4.9343462668       11.3974954771
  H         4.0307529579        4.1621122453       11.3952344132
  C         6.9305086589       15.7388973095       11.3955579286
  H         7.7034732390       14.9607647548       11.3937497689
  C         6.9226565555        4.9384009645        0.5823434099
  H         7.6983593496        4.1629238622        0.5850083423
  C        17.7581406382       15.7289326150        0.5658552015
  H        18.5332547496       14.9529607867        0.5677222171
  C        17.7460688407        4.9172928583       11.3811250986
  H        18.5211637470        4.1412788045       11.3793149832
  C        15.6304399582        7.0355494220       11.3849122234
  H        14.8553860855        7.8116312084       11.3864556986
  C        15.6417556112       17.8463080517        0.5622608793
  H        14.8661215263       18.6218386435        0.5603095668
  C         4.8059129105        7.0551528646        0.5782330221
  H         4.0307651233        7.8310409002        0.5759382787
  C         4.8194773974       17.8618999848       11.3997943088
  H         4.0458993429       18.6394436403       11.4017890782
  C         6.9399835432        7.0376317028       11.4001759387
  H         7.7225839362        7.8056297319       11.4036425496
  C         6.9466381846       17.8682790919        0.5836515834
  H         7.7222392873       18.6437093423        0.5852441230
  C        17.7390006668        7.0330681511        0.5638653242
  H        18.5140736144        7.8091368009        0.5659099691
  C        17.7576087402       17.8525802062       11.3831256675
  H        18.5334976051       18.6278220350       11.3821899672
 Xe         5.9992765656       10.7274340556       10.7273535336
