     409
 i =     150, E =    -5183.7521487376
  N         2.7008413483        5.2053556301       16.0232355609
  C         1.3827164921        5.4757661217       16.2921411929
  N        13.5179621107        5.2034417217        5.2034416724
  C        12.2001956389        5.4739553667        5.4739598086
  N        19.3855900964       17.5772119610       16.0207970697
  C        20.7035342228       17.3067416527       16.2906313866
  N         8.5634537164       17.5803989297        5.2072873359
  C         9.8813261933       17.3083331015        5.4753074168
  N        19.3800860338        5.2023625202        6.7587981248
  C        20.6979655672        5.4746355076        6.4907357221
  N         8.5634538095        5.2072889727       17.5803999520
  C         9.8813266624        5.4753084873       17.3083331703
  N         2.6995734438       17.5791958289        6.7622525445
  C         1.3818884837       17.3080458343        6.4920619110
  N        13.5242108464       17.5771559533       17.5771588150
  C        12.2063326004       17.3075084826       17.3075116606
  N        15.6705218884        3.0479115194        5.2024367719
  C        15.9393039079        1.7301994980        5.4730256136
  N        15.6778252346       13.8674811096       16.0186852000
  C        15.9476125853       12.5499821492       16.2881802385
  N        15.6769633456       19.7321321888       17.5771529671
  C        15.9450638404       21.0496903372       17.3054853422
  N        15.6760940341        8.9128822589        6.7625672396
  C        15.9475513290       10.2301581271        6.4940766768
  N         6.4092917505       19.7361345121        5.2089784834
  C         6.1397242188       21.0537630987        5.4791667882
  N         6.4100661269        8.9163528155       16.0238073183
  C         6.1415190184       10.2339643619       16.2945249606
  N         6.4117107214        3.0526690646       17.5815365983
  C         6.1452106777        1.7347224875       17.3097004854
  N         6.4087585381       13.8710981130        6.7618918037
  C         6.1398968957       12.5536157528        6.4912194877
  N         4.8580555280       16.0243400947        3.0515559616
  C         5.1303051056       16.2927388255        1.7340980559
  N         4.8555784293        5.2043806525       13.8714350264
  C         5.1252537901        5.4740316867       12.5538054672
  N        17.2296186311       16.0185947531       19.7320236789
  C        16.9591846230       16.2876771108       21.0497187611
  N        17.2291319836        5.2046802160        8.9123294989
  C        16.9618533343        5.4764921035       10.2298816804
  N         4.8545813478        6.7655036407       19.7361073494
  C         5.1243584652        6.4957694338       21.0537026080
  N         4.8558954017       17.5810174759        8.9168433107
  C         5.1265099475       17.3114855374       10.2342330981
  N        17.2233047494        6.7605161524        3.0478039643
  C        16.9535280122        6.4906667611        1.7301692997
  N        17.2317787966       17.5756356387       13.8672382557
  C        16.9625316719       17.3051341791       12.5497519536
  N         4.8524976799        3.0516954776        6.7637506722
  C         5.1232279040        1.7340736265        6.4949018363
  N         4.8584191983       13.8719072960       17.5823007750
  C         5.1276719842       12.5543272467       17.3121750414
  N        17.2247682300       19.7322663508        6.7592689481
  C        16.9542332431       21.0498142004        6.4899720347
  N        17.2287751579        8.9121969316       17.5771056647
  C        16.9609867907       10.2297601273       17.3058619695
  N         4.8608710060       19.7360038155       16.0240670172
  C         5.1318376308       21.0536343249       16.2926185056
  N         4.8541246392        8.9162006888        5.2052200970
  C         5.1246430304       10.2336709054        5.4745091733
  N        17.2277356985        3.0480905646       16.0174897329
  C        16.9582534166        1.7302874822       16.2870672429
  N        17.2313358066       13.8673442522        5.2058600100
  C        16.9629107228       12.5498321134        5.4769921809
  N         2.7031298523       16.0244000885       17.5807593710
  C         1.3852482895       16.2922953927       17.3083758590
  N        13.5207566543       16.0189814778        6.7580682176
  C        12.2029086497       16.2896800913        6.4885698767
  N        19.3831565349       16.0217247054        5.2030243052
  C        20.7009204309       16.2914478495        5.4745537821
  N         8.5657966435       16.0234111717       16.0234103839
  C         9.8839772297       16.2927060161       16.2927069317
  N        19.3821400807        6.7591635116       17.5784256854
  C        20.7002218493        6.4905382980       17.3076700091
  N         8.5615267856        6.7611851102        6.7611850352
  C         9.8791781225        6.4906483491        6.4906517286
  N         2.6975367479        6.7638666077        5.2075096468
  C         1.3796314775        6.4932073963        5.4771090971
  N        13.5207570529        6.7580699925       16.0189799181
  C        12.2029101926        6.4885703597       16.2896803473
  N        15.6721449968        5.2008178809       19.7319668711
  C        15.9400892405        5.4722118808       21.0496751459
  N        15.6751046734       16.0197918296        8.9127145705
  C        15.9462365932       16.2887232092       10.2300464954
  N        15.6749628248       17.5756958902        3.0475720803
  C        15.9440825705       17.3047766857        1.7300470831
  N        15.6780282979        6.7633256425       13.8673587192
  C        15.9484279998        6.4943633832       12.5499343170
  N         6.4063208466        5.2068864270        3.0519334419
  C         6.1382756201        5.4781127059        1.7342073862
  N         6.4118698940       16.0250361500       13.8717778716
  C         6.1424465209       16.2951261807       12.5542029827
  N         6.4158118179       17.5808623042       19.7364499254
  C         6.1471681305       17.3093242692       21.0540504502
  N         6.4081267927        6.7624577119        8.9161163148
  C         6.1395697038        6.4915311907       10.2336012782
  N        19.3821383151       17.5784254180        6.7591633185
  C        20.7002199539       17.3076645849        6.4905423538
  N         8.5677128292       17.5796207758       17.5796193574
  C         9.8851693775       17.3087706525       17.3087715974
  N         2.6975355956        5.2075063760        6.7638679802
  C         1.3796302362        5.4771070382        6.4932078790
  N        13.5206186462        5.2018874429       17.5757279721
  C        12.2028283023        5.4727553332       17.3060685839
  N         2.7031297310       17.5807619831       16.0244004211
  C         1.3852485006       17.3083776843       16.2922952358
  N        13.5206148999       17.5757285780        5.2018847191
  C        12.2028261663       17.3060679900        5.4727542018
  N        19.3831601798        5.2030238103       16.0217255597
  C        20.7009229912        5.4745497900       16.2914540404
  N         8.5603632968        5.2048740164        5.2048731509
  C         9.8784670494        5.4745679996        5.4745712750
  N         6.4158120616       19.7364521978       17.5808608235
  C         6.1471671733       21.0540529021       17.3093242467
  N         6.4081264157        8.9161154847        6.7624599783
  C         6.1395702034       10.2336004828        6.4915322080
  N         6.4063217492        3.0519337119        5.2068856239
  C         6.1382773483        1.7342075735        5.4781123678
  N         6.4118699895       13.8717779380       16.0250372861
  C         6.1424465738       12.5542031360       16.2951271733
  N        15.6749634082        3.0475752160       17.5756934227
  C        15.9440727082        1.7300488178       17.3047671605
  N        15.6780199379       13.8673601153        6.7633189223
  C        15.9484483851       12.5499350986        6.4943845540
  N        15.6721415181       19.7319685732        5.2008190873
  C        15.9400910420       21.0496761631        5.4722089998
  N        15.6751094429        8.9127168274       16.0197879177
  C        15.9462167207       10.2300474685       16.2887453043
  N        17.2247686080        6.7592694963       19.7322656795
  C        16.9542293842        6.4899760519       21.0498132613
  N        17.2287688139       17.5771110130        8.9121962437
  C        16.9610064114       17.3058408222       10.2297589876
  N         4.8524964694        6.7637509347        3.0516958275
  C         5.1232258359        6.4949018033        1.7340739727
  N         4.8584198730       17.5823006363       13.8719069882
  C         5.1276724759       17.3121743815       12.5543271547
  N        17.2277359382       16.0174930238        3.0480910115
  C        16.9582636884       16.2870769921        1.7302869532
  N        17.2313452040        5.2058664472       13.8673417679
  C        16.9628902493        5.4769710089       12.5498298525
  N         4.8608705708       16.0240687341       19.7360012402
  C         5.1318383726       16.2926187769       21.0536318935
  N         4.8541228703        5.2052199181        8.9162017217
  C         5.1246413328        5.4745091716       10.2336720728
  N        17.2296169633       19.7320238493       16.0185948071
  C        16.9591741291       21.0497191037       16.2876678498
  N        17.2291265856        8.9123336984        5.2046704725
  C        16.9618753458       10.2298845147        5.4765128708
  N         4.8580540566        3.0515583601       16.0243408254
  C         5.1303036126        1.7341005223       16.2927399451
  N         4.8555792206       13.8714341828        5.2043798231
  C         5.1252547221       12.5538046364        5.4740310737
  N        17.2233043818        3.0478061593        6.7605161774
  C        16.9535319058        1.7301706339        6.4906639689
  N        17.2317799414       13.8672398079       17.5756339125
  C        16.9625102148       12.5497532299       17.3051558777
  N         4.8545835153       19.7361065762        6.7655020947
  C         5.1243611171       21.0537019706        6.4957687668
  N         4.8558944510        8.9168439266       17.5810180489
  C         5.1265092418       10.2342336212       17.3114863818
  N        19.3800895566        6.7588039655        5.2023622710
  C        20.6979670020        6.4907373949        5.4746370389
  N         8.5635238107        6.7623424244       16.0229593728
  C         9.8813773130        6.4907336462       16.2916034522
  N         2.6995738981        6.7622539932       17.5791960902
  C         1.3818891228        6.4920589344       17.3080509997
  N        13.5187009695        6.7599270223        6.7599252020
  C        12.2007158208        6.4900709181        6.4900742287
  N         2.7008405116       16.0232350268        5.2053539420
  C         1.3827154517       16.2921361724        5.4757694384
  N        13.5230442879       16.0207370177       16.0207373817
  C        12.2054457479       16.2914234382       16.2914251706
  N        19.3855895939       16.0207990099       17.5772116444
  C        20.7035339179       16.2906321858       17.3067412304
  N         8.5635242422       16.0229588073        6.7623410996
  C         9.8813773150       16.2916037481        6.4907327771
  N         6.4117136245       17.5815349335        3.0526664721
  C         6.1452129129       17.3096987596        1.7347198581
  N         6.4087562909        6.7618936752       13.8710984931
  C         6.1398954937        6.4912204471       12.5536163011
  N         6.4092901008        5.2089811125       19.7361345723
  C         6.1397221733        5.4791679597       21.0537632406
  N         6.4100681534       16.0238075788        8.9163523078
  C         6.1415200390       16.2945245217       10.2339638858
  N        15.6769661453       17.5771535243       19.7321311770
  C        15.9450748941       17.3054948796       21.0496892515
  N        15.6761011840        6.7625774812        8.9128813948
  C        15.9475302349        6.4940562007       10.2301567846
  N        15.6705230117        5.2024342741        3.0479112419
  C        15.9393006682        5.4730264249        1.7301984350
  N        15.6778219787       16.0186887328       13.8674801430
  C        15.9476332869       16.2881595971       12.5499812057
 Zn        14.3858355780       14.7261769483       14.7261762981
 Cl        13.1523800523       13.4944054817       13.4944102957
 Zn        14.3816023815        3.9084962718        3.9085019293
 Cl        13.1454011958        2.6779449312        2.6779411363
 Zn         3.5661277667       14.7311050507        3.9097708050
 Cl         2.3348387340       13.4984091187        2.6766079920
 Zn         3.5661270779        3.9097722005       14.7311050754
 Cl         2.3348368109        2.6766088897       13.4984109710
 Zn         7.6986687503        8.0553748483       14.7287650705
 Cl         8.9323959506        9.2866082129       13.4963260505
 Zn         7.6988744602       18.8753622662        3.9151416548
 Cl         8.9340923746       20.1091353247        2.6865264790
 Zn        18.5148965768        8.0520405137        3.9075151723
 Cl        19.7484040834        9.2846714884        2.6763525670
 Zn        18.5204522469       18.8708798212       14.7262812582
 Cl        19.7539650508       20.1012047047       13.4928119816
 Zn         7.6986713971       14.7287651067        8.0553742549
 Cl         8.9323962383       13.4963237896        9.2866079639
 Zn         7.6988707815        3.9151439632       18.8753625774
 Cl         8.9340890482        2.6865304020       20.1091367261
 Zn        18.5204528900       14.7262819584       18.8708790372
 Cl        19.7539653560       13.4928113079       20.1012030846
 Zn        18.5148917243        3.9075192254        8.0520374581
 Cl        19.7484031782        2.6763586429        9.2846672459
 Zn        14.3835173856        8.0537164065        8.0537166705
 Cl        13.1521207648        9.2866077540        9.2866087503
 Zn        14.3871738530       18.8714882096       18.8714901765
 Cl        13.1531971686       20.1030072603       20.1030079465
 Zn         3.5635072104        8.0561522033       18.8731004609
 Cl         2.3290842342        9.2907477508       20.1013918888
 Zn         3.5635083925       18.8731001384        8.0561509649
 Cl         2.3290864502       20.1013925340        9.2907469461
 Zn        14.3844775092       14.7260177490        8.0534330512
 Cl        13.1519134920       13.4944100526        9.2863496428
 Zn        14.3842334251        3.9064509354       18.8696022871
 Cl        13.1492560868        2.6729034978       20.0982077325
 Zn         3.5677013348       14.7318231742       18.8751256086
 Cl         2.3356812630       13.4992188393       20.1076530746
 Zn         3.5625775434        3.9124267342        8.0558633808
 Cl         2.3297096587        2.6826152509        9.2905773544
 Zn         7.6982470720        8.0550565130        8.0550575506
 Cl         8.9335422446        9.2860914475        9.2860938340
 Zn         7.7067178739       18.8739934054       18.8739917016
 Cl         8.9424529804       20.1046711950       20.1046703189
 Zn        18.5158645520        8.0518406854       18.8726380538
 Cl        19.7477408649        9.2841785104       20.1058018639
 Zn        18.5158674665       18.8726408884        8.0518446095
 Cl        19.7477469862       20.1058049381        9.2841807631
 Zn        14.3844805426        8.0534356635       14.7260173981
 Cl        13.1519112029        9.2863453513       13.4944093515
 Zn        14.3842281877       18.8696043954        3.9064460390
 Cl        13.1492549585       20.0982161511        2.6728998942
 Zn         3.5625771235        8.0558628891        3.9124294827
 Cl         2.3297075186        9.2905765052        2.6826191776
 Zn         3.5677018876       18.8751268156       14.7318214126
 Cl         2.3356827019       20.1076537388       13.4992154621
 Zn         7.7005132231       14.7296197022       14.7296203347
 Cl         8.9341044429       13.4977446888       13.4977456420
 Zn         7.6938695794        3.9112549587        3.9112529942
 Cl         8.9272440579        2.6792396876        2.6792390015
 Zn        18.5187340025       14.7262221903        3.9094934778
 Cl        19.7538901576       13.4924609409        2.6811374030
 Zn        18.5187383572        3.9094960080       14.7262251644
 Cl        19.7538866859        2.6811370564       13.4924605384
 Zn         5.6300899445        5.9889712575       16.8067458102
 Zn        16.4519001348       16.8002219541       16.8002134618
 Zn        16.4482753684        5.9829606493        5.9829245251
 Zn         5.6300905135       16.8067447504        5.9889673904
 Zn         5.6283493281        5.9884382893        5.9884396026
 Zn        16.4498229732       16.8000448265        5.9823276496
 Zn         5.6328381324       16.8079436430       16.8079422990
 Zn        16.4498324542        5.9823369876       16.8000148357
  N         3.4464656888        5.9837543764       16.8018859373
  N        14.2645592850        5.9814848673        5.9814811912
  N        18.6392633638       16.7992359126       16.7992345172
  N         7.8171140522       16.8026606277        5.9857939018
  N        18.6338097004        5.9795474128        5.9795420871
  N         7.8171141321        5.9857956708       16.8026620418
  N         3.4464651394       16.8018881913        5.9837498761
  N        14.2698639028       16.7987104225       16.7987113253
  N        16.4474342802        3.7946200859        5.9810165159
  N        16.4547304314       14.6140486713       16.7973448152
  N        16.4540792189       18.9854716540       16.7987708284
  N        16.4516486888        8.1660373290        5.9829404171
  N         5.6318191164       18.9896213879        5.9871094229
  N         5.6323633297        8.1701770753       16.8021013905
  N         5.6332483401        3.7989279206       16.8040133133
  N         5.6319195836       14.6180696778        5.9835263507
  N         5.6332502513       16.8040123755        3.7989252706
  N         5.6319181309        5.9835279422       14.6180704030
  N        16.4540759567       16.7987650216       18.9854704981
  N        16.4516715248        5.9829690695        8.1660325605
  N         5.6318178475        5.9871124936       18.9896219118
  N         5.6323649767       16.8021013110        8.1701762744
  N        16.4474386934        5.9810129406        3.7946163926
  N        16.4547135185       16.7973623933       14.6140470560
  N         5.6286879850        3.7986376884        5.9847062492
  N         5.6351515312       14.6186676841       16.8036807964
  N        16.4493965821       18.9854884281        5.9792873382
  N        16.4512382333        8.1658745180       16.7989095086
  N         5.6375053881       18.9898301441       16.8034453964
  N         5.6305098858        8.1697155132        5.9843815938
  N        16.4516608914        3.7945539933       16.7972165792
  N        16.4542109445       14.6140557920        5.9841303863
  N         3.4494308285       16.8039262064       16.8039247719
  N        14.2669091547       16.7971801481        5.9796819850
  N        18.6363427518       16.8003472615        5.9803486645
  N         7.8203379665       16.8019731205       16.8019708618
  N        18.6363452515        5.9803510142       16.8003441931
  N         7.8146103923        5.9833023855        5.9832997837
  N         3.4438305426        5.9859601520        5.9859627801
  N        14.2669119448        5.9796853589       16.7971770536
  N        16.4494062488        5.9792802679       18.9854853379
  N        16.4512125886       16.7989357510        8.1658731749
  N        16.4516503691       16.7972118052        3.7945520726
  N        16.4542413906        5.9841584157       14.6140526681
  N         5.6286873863        5.9847072178        3.7986377456
  N         5.6351518086       16.8036804273       14.6186676292
  N         5.6375044741       16.8034479542       18.9898277198
  N         5.6305095945        5.9843801438        8.1697166288
  C        11.0440943489       15.7418169063       15.7418179204
  H        11.0432087576       14.9662683602       14.9662679673
  C        11.0390147082        4.9240904379        4.9240949146
  H        11.0385911349        4.1485482067        4.1485497559
  C         0.2222487436       15.7413082359        4.9253414709
  H         0.2228584339       14.9654757907        4.1500787218
  C         0.2222501833        4.9253369262       15.7413140390
  H         0.2228561322        4.1500771996       14.9654786387
  C        11.0421853618        7.0394688516       15.7400524309
  H        11.0422774034        7.8147861146       14.9642740827
  C        11.0419903964       17.8575003941        4.9239287215
  H        11.0418665154       18.6334569655        4.1487916908
  C         0.2187891073        7.0424502422        4.9260179073
  H         0.2187616999        7.8182558010        4.1507362348
  C         0.2243855769       17.8572487650       15.7408444097
  H         0.2244698254       18.6325835582       14.9650882290
  C        11.0421848973       15.7400520893        7.0394690765
  H        11.0422723502       14.9642736032        7.8147864646
  C        11.0419915842        4.9239301274       17.8575006715
  H        11.0418636613        4.1487936146       18.6334577854
  C         0.2243858305       15.7408442415       17.8572472257
  H         0.2244707203       14.9650870967       18.6325811704
  C         0.2187871768        4.9260147279        7.0424486800
  H         0.2187626176        4.1507315647        7.8182529871
  C        11.0402148762        7.0405396279        7.0405431131
  H        11.0404617360        7.8160893657        7.8160901306
  C        11.0463167580       17.8583925914       17.8583951975
  H        11.0472334323       18.6339449397       18.6339467963
  C         0.2205960155        7.0417921311       17.8576624125
  H         0.2200052021        7.8176189864       18.6329203992
  C         0.2205955042       17.8576563143        7.0417955839
  H         0.2200075864       18.6329173885        7.8176192661
  C        15.3971408683       11.3902098671       15.7369490941
  H        14.6224320176       11.3904443279       14.9605084779
  C        15.3898124809        0.5699441873        4.9214610789
  H        14.6154268907        0.5699893643        4.1447166270
  C         4.5750688358       11.3937937072        4.9229711073
  H         3.8000980166       11.3937416112        4.1468152381
  C         4.5815894620        0.5735609782       15.7412309020
  H         3.8066268825        0.5730552195       14.9650591668
  C        15.3985458537       11.3901888622        7.0461445087
  H        14.6238789308       11.3903428206        7.8226265040
  C        15.3946880493        0.5698114252       17.8562453989
  H        14.6202156621        0.5697816643       18.6329058637
  C         4.5771285605       11.3944183844       17.8629979113
  H         3.8021339894       11.3945250556       18.6391149467
  C         4.5739181116        0.5738468211        7.0465254211
  H         3.7990247915        0.5737879321        7.8227519946
  C         6.6921911865       11.3940220457       15.7438128600
  H         7.4671106068       11.3939005007       14.9675641552
  C         6.6894974417        0.5740975927        4.9280679942
  H         7.4648884006        0.5741964160        4.1523045474
  C        17.5125846540       11.3897322820        4.9256352057
  H        18.2870537659       11.3895219633        4.1489791666
  C        17.5080277182        0.5700920627       15.7356460362
  H        18.2824171706        0.5701613285       14.9588995366
  C         6.6899909421       11.3936123300        7.0423969486
  H         7.4648441891       11.3936136468        7.8187049367
  C         6.6968197395        0.5747841336       17.8598759905
  H         7.4719212789        0.5753312016       18.6359057586
  C        17.5121011307       11.3895729274       17.8564337530
  H        18.2870641229       11.3892545472       18.6326019930
  C        17.5032881415        0.5700116973        7.0419514578
  H        18.2778469220        0.5699462183        7.8185336404
  C        15.3971636832       15.7369252337       11.3902092377
  H        14.6224389799       14.9605003025       11.3904491630
  C        15.3898106101        4.9214623189        0.5699426954
  H        14.6154295749        4.1447131442        0.5699853685
  C         4.5815903066       15.7412306268        0.5735581627
  H         3.8066268510       14.9650596956        0.5730517774
  C         4.5750671444        4.9229717205       11.3937949891
  H         3.8000956555        4.1468165254       11.3937439972
  C         6.6921914688       15.7438119697       11.3940219896
  H         7.4671106515       14.9675631085       11.3939008671
  C         6.6894958831        4.9280688243        0.5740973327
  H         7.4648878447        4.1523063389        0.5741955541
  C        17.5080395568       15.7356561825        0.5700918861
  H        18.2824234944       14.9589040201        0.5701578072
  C        17.5125608724        4.9256115525       11.3897300570
  H        18.2870499710        4.1489755280       11.3895244203
  C        15.3985225999        7.0461211138       11.3901883156
  H        14.6238752433        7.8226224486       11.3903445292
  C        15.3946997770       17.8562562023        0.5698096842
  H        14.6202226384       18.6329117154        0.5697821674
  C         4.5739152748        7.0465251925        0.5738475453
  H         3.7990215692        7.8227513603        0.5737896600
  C         4.5771291456       17.8629971914       11.3944178739
  H         3.8021350184       18.6391146066       11.3945246645
  C         6.6899902422        7.0423967555       11.3936127420
  H         7.4648437742        7.8187045263       11.3936131445
  C         6.6968215467       17.8598747793        0.5747819126
  H         7.4719229465       18.6359046616        0.5753294456
  C        17.5032829962        7.0419556515        0.5700110371
  H        18.2778444381        7.8185351374        0.5699467132
  C        17.5121239997       17.8564096780       11.3895719666
  H        18.2870707003       18.6325942117       11.3892540963
 Xe        19.6841029393       10.5665196941       10.5665196474
