     409
 i =     150, E =    -5183.7578692160
  N         2.7610299034        5.2018920571       16.0197408803
  C         1.4434262131        5.4729087387       16.2902674329
  N        13.5821246322        5.1995651653        5.1995627173
  C        12.2647025740        5.4699420727        5.4699410108
  N        19.4409596672       17.5793090080       16.0229772771
  C        20.7588710637       17.3070428245       16.2909630993
  N         8.6254655666       17.5755925000        5.2025148766
  C         9.9429951028       17.3059844485        5.4741328668
  N        19.4435869993        5.2058414667        6.7618668196
  C        20.7615523049        5.4744823908        6.4905386000
  N         8.6254692644        5.2025154739       17.5755916987
  C         9.9429946750        5.4741387208       17.3059847179
  N         2.7622931603       17.5765844141        6.7578631179
  C         1.4443464262       17.3065785138        6.4887600436
  N        13.5795717572       17.5764170135       17.5764170603
  C        12.2618427236       17.3061766613       17.3061758315
  N        15.7367328890        3.0506874691        5.2045853279
  C        16.0057780977        1.7331938615        5.4757821584
  N        15.7371470523       13.8688472063       16.0187350715
  C        16.0093892092       12.5515332670       16.2866562241
  N        15.7312062503       19.7352378859       17.5797334329
  C        16.0004542092       21.0528486983       17.3087866605
  N        15.7283862868        8.9179275795        6.7659944263
  C        15.9981950399       10.2344045199        6.4924968195
  N         6.4741586210       19.7304997811        5.2027355701
  C         6.2062048741       21.0483556187        5.4738854996
  N         6.4709488885        8.9119936704       16.0198402573
  C         6.2015775794       10.2294537384       16.2906634075
  N         6.4735918911        3.0475026510       17.5753975109
  C         6.2047936268        1.7298662184       17.3039684075
  N         6.4722373411       13.8660071005        6.7581593207
  C         6.2037253656       12.5483977943        6.4870236750
  N         4.9184783620       16.0189332313        3.0479276187
  C         5.1892676551       16.2875276643        1.7302184635
  N         4.9173253622        5.2016901169       13.8660843404
  C         5.1881849247        5.4706344723       12.5485003311
  N        17.2850473380       16.0221629558       19.7346813138
  C        17.0152778558       16.2916364542       21.0524882655
  N        17.2881620614        5.2143319379        8.9140002361
  C        17.0180332751        5.4805530960       10.2321095918
  N         4.9188045050        6.7589606053       19.7314136773
  C         5.1904402299        6.4900782236       21.0488572536
  N         4.9169656967       17.5773408498        8.9115168889
  C         5.1866146735       17.3076646415       10.2291176739
  N        17.2877480059        6.7646397173        3.0513468741
  C        17.0190493689        6.4944066073        1.7333881489
  N        17.2887556231       17.5778815433       13.8696417072
  C        17.0225948971       17.3052928094       12.5519638965
  N         4.9195132466        3.0470254924        6.7578994030
  C         5.1907992948        1.7293794393        6.4895870984
  N         4.9150074822       13.8668546088       17.5775444154
  C         5.1855955580       12.5493890503       17.3078548994
  N        17.2885069431       19.7347639880        6.7640531277
  C        17.0190460081       21.0525305404        6.4939357397
  N        17.2933391620        8.9144674104       17.5760693503
  C        17.0248540476       10.2318732470       17.3042926382
  N         4.9156773818       19.7320848996       16.0190865310
  C         5.1877926952       21.0495913539       16.2875275038
  N         4.9180362351        8.9105982194        5.2006781817
  C         5.1885912850       10.2280984443        5.4701432678
  N        17.2871714340        3.0509544395       16.0221778401
  C        17.0163439898        1.7332790367       16.2915789967
  N        17.2927427554       13.8693261961        5.2062582819
  C        17.0205862632       12.5521381350        5.4760196701
  N         2.7584889598       16.0198830611       17.5763881023
  C         1.4405975119       16.2895101234       17.3056131492
  N        13.5803464399       16.0222722880        6.7666031469
  C        12.2630614424       16.2914562258        6.4940956094
  N        19.4437434754       16.0240198516        5.2035671641
  C        20.7618958712       16.2924366724        5.4738280573
  N         8.6225798804       16.0203537542       16.0203567792
  C         9.9404421028       16.2902757005       16.2902741423
  N        19.4455229446        6.7596501932       17.5803100266
  C        20.7630673527        6.4897773006       17.3085957097
  N         8.6268292508        6.7571321363        6.7571338651
  C         9.9444360838        6.4866341569        6.4866344305
  N         2.7611437500        6.7572735101        5.2008844875
  C         1.4432593285        6.4882640570        5.4721734627
  N        13.5803469402        6.7666056019       16.0222743000
  C        12.2630611297        6.4940991939       16.2914577896
  N        15.7352069887        5.2057459305       19.7349709135
  C        16.0049118657        5.4760618784       21.0525885144
  N        15.7409769047       16.0167836750        8.9141286436
  C        16.0115079775       16.2856384646       10.2315450860
  N        15.7335448940       17.5797773594        3.0514361016
  C        16.0016023646       17.3087614688        1.7336042546
  N        15.7314649867        6.7556225524       13.8716981053
  C        16.0002257589        6.4874099368       12.5540613579
  N         6.4749631539        5.2017116623        3.0467983528
  C         6.2065912227        5.4734100167        1.7291623747
  N         6.4692396444       16.0205606107       13.8674404278
  C         6.2006657576       16.2910245727       12.5497784255
  N         6.4704539633       17.5757974694       19.7313197313
  C         6.2032059216       17.3040715955       21.0491368294
  N         6.4736885052        6.7567280386        8.9103254420
  C         6.2043862211        6.4863574398       10.2279470364
  N        19.4455082552       17.5803072068        6.7596439083
  C        20.7630503108       17.3085902204        6.4897711853
  N         8.6227945573       17.5765115743       17.5765143074
  C         9.9405750330       17.3063390732       17.3063385486
  N         2.7611438405        5.2008869595        6.7572716721
  C         1.4432607941        5.4721760981        6.4882614717
  N        13.5820524411        5.2092928024       17.5777014048
  C        12.2640566906        5.4775099447       17.3070148491
  N         2.7584911505       17.5763881179       16.0198861987
  C         1.4405982440       17.3056146238       16.2895106988
  N        13.5820522287       17.5776998090        5.2092921297
  C        12.2640588202       17.3070119191        5.4775083390
  N        19.4437535652        5.2035765806       16.0240242583
  C        20.7619073731        5.4738313685       16.2924389007
  N         8.6258664716        5.2011933875        5.2011948867
  C         9.9437570269        5.4706805613        5.4706819367
  N         6.4704541922       19.7313260192       17.5757968052
  C         6.2032062643       21.0491414628       17.3040722287
  N         6.4736883931        8.9103203043        6.7567281185
  C         6.2043856509       10.2279426705        6.4863551493
  N         6.4749639066        3.0468022717        5.2017100271
  C         6.2065914989        1.7291634631        5.4734094445
  N         6.4692387847       13.8674396247       16.0205611857
  C         6.2006666616       12.5497793400       16.2910235241
  N        15.7335414009        3.0514348735       17.5797790280
  C        16.0015944190        1.7335987729       17.3087607688
  N        15.7314727288       13.8717013052        6.7556164643
  C        16.0002405894       12.5540680823        6.4874100602
  N        15.7352077514       19.7349722432        5.2057490945
  C        16.0049155935       21.0525865250        5.4760628937
  N        15.7409751619        8.9141289145       16.0167818491
  C        16.0114916804       10.2315469252       16.2856509515
  N        17.2885051403        6.7640539234       19.7347607439
  C        17.0190435114        6.4939398367       21.0525298779
  N        17.2933391394       17.5760710119        8.9144672679
  C        17.0248684320       17.3042777804       10.2318698855
  N         4.9195114243        6.7579000933        3.0470195699
  C         5.1907997652        6.4895861652        1.7293749304
  N         4.9150105346       17.5775434705       13.8668586552
  C         5.1855936112       17.3078579600       12.5493890854
  N        17.2871749365       16.0221747757        3.0509480808
  C        17.0163495452       16.2915831976        1.7332754498
  N        17.2927366166        5.2062675154       13.8693272698
  C        17.0205733675        5.4760179247       12.5521365246
  N         4.9156761671       16.0190851799       19.7320793395
  C         5.1877930080       16.2875270880       21.0495842382
  N         4.9180350064        5.2006800498        8.9106036782
  C         5.1885909729        5.4701467370       10.2281027245
  N        17.2850468223       19.7346827840       16.0221549358
  C        17.0152714316       21.0524854924       16.2916310244
  N        17.2881679136        8.9140040343        5.2143331580
  C        17.0180475202       10.2321171689        5.4805564590
  N         4.9184796418        3.0479312751       16.0189347688
  C         5.1892725693        1.7302294582       16.2875343523
  N         4.9173271012       13.8660834932        5.2016906658
  C         5.1881815134       12.5484905486        5.4706269955
  N        17.2877475263        3.0513471309        6.7646368778
  C        17.0190510969        1.7333895414        6.4944007639
  N        17.2887488661       13.8696448922       17.5778818723
  C        17.0225765304       12.5519648328       17.3053101831
  N         4.9188036159       19.7314152938        6.7589614702
  C         5.1904345683       21.0488654039        6.4900829515
  N         4.9169636892        8.9115193495       17.5773409948
  C         5.1866195793       10.2291122731       17.3076595377
  N        19.4435865575        6.7618676976        5.2058422723
  C        20.7615538845        6.4905407154        5.4744807462
  N         8.6241265569        6.7591139501       16.0201058643
  C         9.9420454106        6.4905409528       16.2903223372
  N         2.7623050403        6.7578634013       17.5765886870
  C         1.4443619186        6.4887580865       17.3065795092
  N        13.5829539095        6.7558475901        6.7558428452
  C        12.2651377731        6.4860219360        6.4860192011
  N         2.7610226446       16.0197381115        5.2018945573
  C         1.4434113934       16.2902598111        5.4729047043
  N        13.5796964765       16.0198518337       16.0198493303
  C        12.2619062875       16.2900654509       16.2900628703
  N        19.4409568597       16.0229770489       17.5793070878
  C        20.7588728975       16.2909598887       17.3070441038
  N         8.6241270659       16.0201070410        6.7591140104
  C         9.9420462713       16.2903211806        6.4905366755
  N         6.4735865878       17.5753946098        3.0474987202
  C         6.2047925789       17.3039670835        1.7298588896
  N         6.4722367366        6.7581583992       13.8660113063
  C         6.2037253577        6.4870255314       12.5484027195
  N         6.4741630441        5.2027344426       19.7305007814
  C         6.2062065326        5.4738865133       21.0483521875
  N         6.4709509795       16.0198393455        8.9119917018
  C         6.2015763543       16.2906635318       10.2294528722
  N        15.7312081618       17.5797400434       19.7352409598
  C        16.0004599824       17.3087916827       21.0528463115
  N        15.7283828015        6.7659967035        8.9179202844
  C        15.9981835156        6.4924938199       10.2344009688
  N        15.7367342819        5.2045874580        3.0506870348
  C        16.0057756074        5.4757852952        1.7331906419
  N        15.7371510564       16.0187349836       13.8688456838
  C        16.0094076174       16.2866402805       12.5515321643
 Zn        14.4442216942       14.7258717975       14.7258713975
 Cl        13.2265015307       13.4858965265       13.4858990142
 Zn        14.4461320281        3.9072799501        3.9072766414
 Cl        13.2210354365        2.6713825455        2.6713860810
 Zn         3.6251499546       14.7260515702        3.9078401834
 Cl         2.3949681967       13.4928641858        2.6743773274
 Zn         3.6251501141        3.9078391917       14.7260479543
 Cl         2.3949741540        2.6743776987       13.4928549401
 Zn         7.7623756866        8.0525799674       14.7255781634
 Cl         9.0000996724        9.2842731079       13.4977193523
 Zn         7.7649116313       18.8699733737        3.9076787297
 Cl         9.0004310471       20.1014546528        2.6778752631
 Zn        18.5765704813        8.0559573276        3.9161675924
 Cl        19.8070985995        9.2951710722        2.6881246287
 Zn        18.5761165008       18.8734976107       14.7293994904
 Cl        19.8094451605       20.1051018462       13.4970204345
 Zn         7.7623915130       14.7255701817        8.0525825739
 Cl         9.0001005780       13.4977051237        9.2842851487
 Zn         7.7649251037        3.9076872351       18.8699713924
 Cl         9.0004381248        2.6778797545       20.1014520705
 Zn        18.5761014217       14.7294064416       18.8734937523
 Cl        19.8094349880       13.4970269236       20.1050925654
 Zn        18.5765686515        3.9161599111        8.0559579838
 Cl        19.8071087295        2.6881323761        9.2951759101
 Zn        14.4367724458        8.0553673192        8.0553634088
 Cl        13.1165419309        9.2423575729        9.2423470441
 Zn        14.4407968454       18.8721169113       18.8721161990
 Cl        13.2020886876       20.1012972768       20.1013077708
 Zn         3.6253195513        8.0510476372       18.8712732322
 Cl         2.3917162035        9.2843776769       20.1012285529
 Zn         3.6253144900       18.8712727764        8.0510428795
 Cl         2.3917021740       20.1012264657        9.2843656706
 Zn        14.4456231343       14.7258495448        8.0556138580
 Cl        13.2411935113       13.4724913152        9.2956978452
 Zn        14.4434217250        3.9138511486       18.8726847390
 Cl        13.2054568511        2.6824376038       20.1003940595
 Zn         3.6229927451       14.7266199914       18.8710688676
 Cl         2.3908550796       13.4928673171       20.1021292947
 Zn         3.6257342369        3.9069471646        8.0503742359
 Cl         2.3947146659        2.6741617810        9.2835611920
 Zn         7.7669350301        8.0510542344        8.0510573346
 Cl         8.9903278352        9.2876271234        9.2876239753
 Zn         7.7597734896       18.8707139364       18.8707065945
 Cl         8.9949536243       20.1016937326       20.1016900727
 Zn        18.5826958307        8.0542186559       18.8729208090
 Cl        19.8124631439        9.2890809084       20.1052798339
 Zn        18.5826779117       18.8729240397        8.0542181246
 Cl        19.8124571126       20.1052751589        9.2890772959
 Zn        14.4456173649        8.0556183878       14.7258384828
 Cl        13.2411821678        9.2957090237       13.4724895713
 Zn        14.4434260659       18.8726844607        3.9138694652
 Cl        13.2054716492       20.1003855349        2.6824383884
 Zn         3.6257348692        8.0503716377        3.9069462798
 Cl         2.3947200460        9.2835537403        2.6741532957
 Zn         3.6229984037       18.8710699089       14.7266217926
 Cl         2.3908553357       20.1021349871       13.4928765346
 Zn         7.7596987114       14.7263435249       14.7263387651
 Cl         8.9954184275       13.4955084515       13.4955025877
 Zn         7.7667813155        3.9069917756        3.9069910987
 Cl         9.0011995504        2.6757449368        2.6757428697
 Zn        18.5803469670       14.7293157734        3.9099269170
 Cl        19.8155905698       13.4990217287        2.6784908420
 Zn        18.5803562763        3.9099390675       14.7293162852
 Cl        19.8155929914        2.6784913387       13.4990207094
 Zn         5.6896328613        5.9811286798       16.7985366276
 Zn        16.5071075825       16.8040513504       16.8040293027
 Zn        16.5067707244        5.9881227036        5.9881207605
 Zn         5.6896336583       16.7985287943        5.9811633546
 Zn         5.6910068980        5.9798932964        5.9798849590
 Zn        16.5099794550       16.8045610646        5.9874814100
 Zn         5.6873507728       16.7999534262       16.7999960875
 Zn        16.5099726031        5.9875043692       16.8045898342
  N         3.5079125790        5.9794062725       16.7980968356
  N        14.3285073771        5.9779008535        5.9778971540
  N        18.6945900417       16.8023037794       16.8023012708
  N         7.8782740395       16.7977449520        5.9800423100
  N        18.6970535167        5.9847368128        5.9847376780
  N         7.8782751513        5.9800386131       16.7977412374
  N         3.5079070682       16.7980950075        5.9794095950
  N        14.3258307041       16.7983214673       16.7983165340
  N        16.5121659279        3.7977931235        5.9842609917
  N        16.5117052137       14.6160259522       16.7992080484
  N        16.5086622283       18.9884121223       16.8017167230
  N        16.5087833226        8.1693223981        5.9920007603
  N         5.6953191386       18.9843346751        5.9801586436
  N         5.6937675480        8.1652116535       16.7982751096
  N         5.6953085205        3.7943251966       16.7979921410
  N         5.6940770918       14.6126972143        5.9805695610
  N         5.6953039482       16.7979905120        3.7943244188
  N         5.6940765544        5.9805674460       14.6126996485
  N        16.5086642547       16.8017287532       18.9884102144
  N        16.5087816135        5.9920007157        8.1693184074
  N         5.6953225973        5.9801552197       18.9843357878
  N         5.6937702523       16.7982769877        8.1652111713
  N        16.5121697651        5.9842612034        3.7977921973
  N        16.5116986846       16.7992201134       14.6160228458
  N         5.6963237538        3.7935036495        5.9788298764
  N         5.6915229227       14.6138091906       16.7988011873
  N        16.5119279062       18.9883410197        5.9847466592
  N        16.5167772167        8.1679097826       16.7970352438
  N         5.6916568591       18.9851085108       16.7984684688
  N         5.6953947916        8.1639797302        5.9790422249
  N        16.5113068243        3.7979250285       16.8017613705
  N        16.5133229855       14.6173102706        5.9811994272
  N         3.5047063518       16.7985319004       16.7985332031
  N        14.3275827675       16.8004305136        5.9888420764
  N        18.6981659953       16.8029469907        5.9815481663
  N         7.8761839898       16.7985272687       16.7985317169
  N        18.6981729557        5.9815569354       16.8029496242
  N         7.8796200035        5.9794247045        5.9794265015
  N         3.5074626205        5.9785255611        5.9785244202
  N        14.3275834988        5.9888384659       16.8004273202
  N        16.5119282038        5.9847435320       18.9883407419
  N        16.5167678436       16.7970472227        8.1679078758
  N        16.5113143906       16.8017622923        3.7979205112
  N        16.5133149062        5.9812052368       14.6173111480
  N         5.6963226286        5.9788309620        3.7935001468
  N         5.6915256504       16.7988006586       14.6138126983
  N         5.6916559060       16.7984687048       18.9851076087
  N         5.6953939836        5.9790423918        8.1639823414
  C        11.1010616410       15.7399654836       15.7399619458
  H        11.1003198629       14.9644282801       14.9644234859
  C        11.1038581630        4.9199483633        4.9199498699
  H        11.1030532945        4.1444318404        4.1444354487
  C         0.2818980495       15.7407346673        4.9234967656
  H         0.2805073790       14.9648455886        4.1483187526
  C         0.2819019230        4.9234982988       15.7407381140
  H         0.2805010254        4.1483223552       14.9648508248
  C        11.1019857657        7.0426915326       15.7406930129
  H        11.1000605617        7.8182785003       14.9652365084
  C        11.1040328549       17.8564818899        4.9251894039
  H        11.1049176466       18.6317355002        4.1492776727
  C         0.2823730778        7.0396609021        4.9232486716
  H         0.2824044945        7.8156001128        4.1481245539
  C         0.2796872637       17.8559811556       15.7395633316
  H         0.2795932261       18.6312461837       14.9637555935
  C        11.1019858160       15.7406916795        7.0426880972
  H        11.1000632831       14.9652391799        7.8182784249
  C        11.1040344813        4.9251932508       17.8564836746
  H        11.1049161461        4.1492784955       18.6317349000
  C         0.2796848447       15.7395603474       17.8559795746
  H         0.2795936080       14.9637496334       18.6312435158
  C         0.2823737629        4.9232505408        7.0396589635
  H         0.2824050340        4.1481285584        7.8155970427
  C        11.1048527934        7.0366587512        7.0366566756
  H        11.1077982786        7.8122817303        7.8122792210
  C        11.1012152081       17.8564646779       17.8564648933
  H        11.1013927404       18.6320434347       18.6320456384
  C         0.2843690151        7.0397182782       17.8576284739
  H         0.2856460350        7.8154514145       18.6329921095
  C         0.2843601767       17.8576224967        7.0397138056
  H         0.2856433584       18.6329877647        7.8154473955
  C        15.4622172076       11.3912836967       15.7330933047
  H        14.6896233864       11.3908791840       14.9546014255
  C        15.4560181932        0.5730353760        4.9243947208
  H        14.6819636052        0.5736494794        4.1472828856
  C         4.6382608962       11.3883114161        4.9195632947
  H         3.8628282160       11.3883534845        4.1438832596
  C         4.6388497110        0.5702563259       15.7363209083
  H         3.8637256257        0.5709258221       14.9603570798
  C        15.4446697879       11.3957692232        7.0364349079
  H        14.6634489483       11.4000778224        7.8058249265
  C        15.4509154003        0.5735205473       17.8595216845
  H        14.6760716421        0.5740308325       18.6357735254
  C         4.6361433390       11.3889727119       17.8588311353
  H         3.8610142164       11.3885162654       18.6348157966
  C         4.6407800451        0.5693378788        7.0408298395
  H         3.8654223854        0.5697920202        7.8166253455
  C         6.7513490325       11.3899186007       15.7399682996
  H         7.5263573752       11.3903822468       14.9638225922
  C         6.7573137609        0.5685552476        4.9236523184
  H         7.5330119748        0.5682151695        4.1482434636
  C        17.5717214301       11.3905685669        4.9293088379
  H        18.3497855824       11.3876215945        4.1562840772
  C        17.5654159182        0.5726363160       15.7403631172
  H        18.3404424559        0.5721574157       14.9642227841
  C         6.7546179328       11.3881811980        7.0371523353
  H         7.5298729012       11.3878487483        7.8130729108
  C         6.7547329696        0.5691591354       17.8541860294
  H         7.5301456283        0.5684976817       18.6299348066
  C        17.5734165811       11.3922318596       17.8562847316
  H        18.3473400519       11.3926607485       18.6334903133
  C        17.5681861104        0.5729031816        7.0458932873
  H        18.3420233354        0.5725615986        7.8231362662
  C        15.4622329488       15.7330794244       11.3912824726
  H        14.6896224899       14.9546042033       11.3908764749
  C        15.4560203231        4.9243974944        0.5730355214
  H        14.6819680648        4.1472759774        0.5736520080
  C         4.6388505767       15.7363202207        0.5702531614
  H         3.8637227714       14.9603551014        0.5709203895
  C         4.6382566685        4.9195641873       11.3883128950
  H         3.8628298718        4.1438893685       11.3883573251
  C         6.7513467259       15.7399686386       11.3899179443
  H         7.5263529377       14.9638245222       11.3903788687
  C         6.7573171435        4.9236508651        0.5685549102
  H         7.5330142300        4.1482432575        0.5682197199
  C        17.5654233914       15.7403677546        0.5726306389
  H        18.3404521541       14.9642242855        0.5721502907
  C        17.5717065782        4.9293072801       11.3905692947
  H        18.3497749826        4.1562900031       11.3876239620
  C        15.4446593356        7.0364333120       11.3957629990
  H        14.6634443859        7.8058337143       11.4000672719
  C        15.4509174040       17.8595272754        0.5735233252
  H        14.6760757684       18.6357703922        0.5740384057
  C         4.6407769212        7.0408328935        0.5693358020
  H         3.8654241143        7.8166231775        0.5697889397
  C         4.6361477405       17.8588273815       11.3889715376
  H         3.8610114776       18.6348204631       11.3885156483
  C         6.7546199260        7.0371544159       11.3881855592
  H         7.5298780403        7.8130738736       11.3878527300
  C         6.7547299189       17.8541829435        0.5691547669
  H         7.5301431420       18.6299345085        0.5684933416
  C        17.5681813073        7.0458958898        0.5729007590
  H        18.3420233864        7.8231361495        0.5725605384
  C        17.5734356229       17.8562722681       11.3922304735
  H        18.3473395752       18.6334915699       11.3926578406
 Xe        16.3271891467       10.7702470062       10.7702548180
