     409
 i =     150, E =    -5183.7577115850
  N         2.7553443391        5.2036553285       16.0225284357
  C         1.4376135261        5.4749998062       16.2929905344
  N        13.5792105203        5.2069322488        5.2069325061
  C        12.2615949737        5.4768852881        5.4768853160
  N        19.4350856379       17.5818954688       16.0254105571
  C        20.7529388830       17.3091305675       16.2930331352
  N         8.6185587247       17.5777218270        5.2041272021
  C         9.9361340293       17.3077108724        5.4757095708
  N        19.4415100182        5.2080174434        6.7639193485
  C        20.7595112652        5.4763507730        6.4924045258
  N         8.6185613795        5.2041294160       17.5777193117
  C         9.9361288652        5.4757080812       17.3077136330
  N         2.7567534398       17.5795070103        6.7595770383
  C         1.4386882107       17.3093138059        6.4908656530
  N        13.5726822352       17.5790927477       17.5790905040
  C        12.2550719424       17.3085493880       17.3085475881
  N        15.7320814587        3.0551806034        5.2095623500
  C        16.0007038046        1.7374795479        5.4801860049
  N        15.7306545264       13.8717299220       16.0222355795
  C        16.0027201056       12.5543934357       16.2902306347
  N        15.7246248026       19.7381057941       17.5825219197
  C        15.9935623017       21.0556989958       17.3115877013
  N        15.7267165524        8.9206947578        6.7665688300
  C        15.9947395653       10.2372628124        6.4922691677
  N         6.4680606865       19.7335371867        5.2044353365
  C         6.2011450561       21.0515215448        5.4756261123
  N         6.4633854871        8.9138663327       16.0224346140
  C         6.1938079120       10.2313833040       16.2927358424
  N         6.4660445939        3.0492009427       17.5778455615
  C         6.1976913403        1.7315921361       17.3060734784
  N         6.4639835196       13.8689168810        6.7603545071
  C         6.1961583846       12.5513033342        6.4891858121
  N         4.9122064645       16.0207063948        3.0498329200
  C         5.1828409630       16.2890429624        1.7321008914
  N         4.9105858977        5.2030952478       13.8687196538
  C         5.1814673018        5.4720460929       12.5511086015
  N        17.2784954279       16.0248916019       19.7379061464
  C        17.0083351418       16.2943639858       21.0554661633
  N        17.2873183341        5.2159568184        8.9177471377
  C        17.0153708927        5.4812377104       10.2357897348
  N         4.9131731622        6.7608427219       19.7351811316
  C         5.1854591719        6.4918975060       21.0524597419
  N         4.9107992624       17.5809731546        8.9136710051
  C         5.1796393687       17.3104693878       10.2311751638
  N        17.2843617565        6.7681227887        3.0549880652
  C        17.0148419571        6.4979233762        1.7371252435
  N        17.2818125899       17.5817465699       13.8723116810
  C        17.0157042536       17.3090535485       12.5547744588
  N         4.9173176836        3.0502708224        6.7602125659
  C         5.1877369857        1.7327293415        6.4914680722
  N         4.9086111524       13.8687923632       17.5798424800
  C         5.1785771620       12.5512314748       17.3099438623
  N        17.2826847210       19.7385665568        6.7672528434
  C        17.0137119318       21.0563863556        6.4973440631
  N        17.2859400972        8.9172465682       17.5798215925
  C        17.0177332939       10.2347362324       17.3078902117
  N         4.9094861839       19.7341244380       16.0203825325
  C         5.1814184167       21.0516696653       16.2888913822
  N         4.9128772280        8.9134008950        5.2021742016
  C         5.1827079950       10.2309196545        5.4716720402
  N        17.2801065224        3.0537843194       16.0258665470
  C        17.0091092989        1.7361152184       16.2949199545
  N        17.2869385188       13.8731741954        5.2081027425
  C        17.0156800872       12.5557348795        5.4771995386
  N         2.7528583459       16.0216497448       17.5781649154
  C         1.4348224717       16.2911853958       17.3073146108
  N        13.5739731236       16.0242045245        6.7685384805
  C        12.2564976234       16.2929943546        6.4957421046
  N        19.4376255233       16.0274079391        5.2056943054
  C        20.7558722346       16.2954721452        5.4761411889
  N         8.6157321090       16.0219994887       16.0219995640
  C         9.9336833504       16.2921496720       16.2921490601
  N        19.4395627200        6.7624159052       17.5832396689
  C        20.7571887264        6.4923672986       17.3114035018
  N         8.6222546023        6.7622437103        6.7622432039
  C         9.9402279629        6.4925894007        6.4925891144
  N         2.7588116086        6.7586927936        5.2022931389
  C         1.4410258404        6.4897701530        5.4736962098
  N        13.5739650907        6.7685362827       16.0242104352
  C        12.2564976408        6.4957467598       16.2929930108
  N        15.7286085365        5.2100743213       19.7392403487
  C        15.9988909228        5.4801797423       21.0568530625
  N        15.7343108587       16.0199996720        8.9168116416
  C        16.0046382396       16.2889631029       10.2343352384
  N        15.7270468451       17.5836835725        3.0543732500
  C        15.9945713436       17.3123155268        1.7364481874
  N        15.7258492573        6.7572531216       13.8742219476
  C        15.9950421841        6.4882502583       12.5567582652
  N         6.4731359464        5.2046420381        3.0498588119
  C         6.2037470125        5.4755532896        1.7322164183
  N         6.4616087265       16.0221263897       13.8690969035
  C         6.1929379915       16.2924800291       12.5515054351
  N         6.4631623385       17.5779139415       19.7334965208
  C         6.1961938974       17.3060523862       21.0511819132
  N         6.4666234998        6.7598197813        8.9138521221
  C         6.1974390554        6.4888801686       10.2312362322
  N        19.4395690288       17.5832336917        6.7624108371
  C        20.7571808760       17.3114062959        6.4923728645
  N         8.6157496379       17.5783549182       17.5783552977
  C         9.9335849824       17.3082570950       17.3082569566
  N         2.7588047642        5.2022983742        6.7586873545
  C         1.4410292779        5.4736944219        6.4897716880
  N        13.5755090306        5.2122002512       17.5804973451
  C        12.2574436027        5.4796870639       17.3090718351
  N         2.7528468652       17.5781583837       16.0216584921
  C         1.4348288130       17.3073202014       16.2911813267
  N        13.5755047284       17.5804921048        5.2122016132
  C        12.2574499756       17.3090730111        5.4796824380
  N        19.4376363302        5.2056997278       16.0274140845
  C        20.7558704922        5.4761355712       16.2954692210
  N         8.6231003952        5.2061608917        5.2061614840
  C         9.9406525896        5.4765704630        5.4765711331
  N         6.4631652192       19.7334928225       17.5779180587
  C         6.1961912524       21.0511842702       17.3060511354
  N         6.4666226772        8.9138563974        6.7598158317
  C         6.1974434714       10.2312339497        6.4888811433
  N         6.4731363069        3.0498638803        5.2046399664
  C         6.2037440392        1.7322179531        5.4755553949
  N         6.4616070387       13.8690908238       16.0221302095
  C         6.1929399389       12.5515033484       16.2924786048
  N        15.7270403287        3.0543825368       17.5836830488
  C        15.9945728461        1.7364435029       17.3123060803
  N        15.7258522022       13.8742243679        6.7572540607
  C        15.9950471637       12.5567585440        6.4882513775
  N        15.7286068622       19.7392394711        5.2100751741
  C        15.9988913413       21.0568500351        5.4801822577
  N        15.7343128765        8.9168260435       16.0200059480
  C        16.0046258091       10.2343343329       16.2889623397
  N        17.2826842417        6.7672539928       19.7385648827
  C        17.0137093683        6.4973422200       21.0563912899
  N        17.2859385153       17.5798136071        8.9172545844
  C        17.0177451582       17.3078892839       10.2347260697
  N         4.9173159195        6.7602145024        3.0502715979
  C         5.1877389191        6.4914661115        1.7327240929
  N         4.9086141817       17.5798381793       13.8687927868
  C         5.1785757877       17.3099451322       12.5512376052
  N        17.2801137057       16.0258637242        3.0537909817
  C        17.0091085773       16.2949273437        1.7361107952
  N        17.2869345569        5.2081035879       13.8731734090
  C        17.0156755731        5.4771983806       12.5557342397
  N         4.9094831400       16.0203774360       19.7341174735
  C         5.1814215150       16.2888925829       21.0516728224
  N         4.9128772870        5.2021793280        8.9134090438
  C         5.1827029618        5.4716716116       10.2309160406
  N        17.2784975039       19.7378952076       16.0248794610
  C        17.0083272769       21.0554714606       16.2943612231
  N        17.2873194827        8.9177488623        5.2159572658
  C        17.0153744093       10.2357903421        5.4812392405
  N         4.9122034434        3.0498387046       16.0207017883
  C         5.1828435865        1.7320972662       16.2890457469
  N         4.9105887869       13.8687129809        5.2030989383
  C         5.1814658901       12.5511124583        5.4720429033
  N        17.2843652718        3.0549866559        6.7681244711
  C        17.0148445945        1.7371208195        6.4979236542
  N        17.2818027782       13.8723043894       17.5817429295
  C        17.0157006405       12.5547854957       17.3090641005
  N         4.9131717162       19.7351786101        6.7608446160
  C         5.1854596671       21.0524642585        6.4918973966
  N         4.9108011539        8.9136717336       17.5809698438
  C         5.1796377658       10.2311694220       17.3104696652
  N        19.4415167605        6.7639193177        5.2080175075
  C        20.7595084347        6.4924090815        5.4763463408
  N         8.6170480356        6.7607072973       16.0217380770
  C         9.9351019941        6.4918949512       16.2917385371
  N         2.7567480938        6.7595706978       17.5795029912
  C         1.4386960192        6.4908669967       17.3093182988
  N        13.5790301585        6.7630784710        6.7630761497
  C        12.2612624734        6.4929458712        6.4929444200
  N         2.7553333971       16.0225328222        5.2036621663
  C         1.4376146880       16.2929856945        5.4749981193
  N        13.5734176593       16.0224659254       16.0224608294
  C        12.2555201161       16.2924319471       16.2924287392
  N        19.4350955904       16.0254206599       17.5818830257
  C        20.7529321054       16.2930278802       17.3091342167
  N         8.6170560088       16.0217402526        6.7607054898
  C         9.9351025481       16.2917356053        6.4918966978
  N         6.4660473723       17.5778497791        3.0492057351
  C         6.1976883269       17.3060704048        1.7315897134
  N         6.4639817193        6.7603513349       13.8689108945
  C         6.1961603458        6.4891888938       12.5513055812
  N         6.4680616267        5.2044341657       19.7335335958
  C         6.2011448511        5.4756263695       21.0515197351
  N         6.4633840067       16.0224378281        8.9138705461
  C         6.1938096393       16.2927353882       10.2313857066
  N        15.7246215326       17.5825329367       19.7381010901
  C        15.9935686122       17.3115913125       21.0557026325
  N        15.7267147602        6.7665684881        8.9206916045
  C        15.9947355297        6.4922677583       10.2372619875
  N        15.7320813250        5.2095589938        3.0551858435
  C        16.0007040887        5.4801854835        1.7374824156
  N        15.7306642431       16.0222393178       13.8717169016
  C        16.0027240697       16.2902207921       12.5543925293
 Zn        14.4395297816       14.7286889770       14.7286841848
 Cl        13.2184863967       13.4904170890       13.4904087998
 Zn        14.4424742152        3.9141798442        3.9141837991
 Cl        13.2118169513        2.6808846145        2.6808881902
 Zn         3.6199934226       14.7281892224        3.9094777720
 Cl         2.3891736796       13.4952526108        2.6761815727
 Zn         3.6199938888        3.9094758251       14.7281879543
 Cl         2.3891761312        2.6761789723       13.4952511967
 Zn         7.7524351555        8.0542446730       14.7276460370
 Cl         8.9894351414        9.2860508684       13.4988715658
 Zn         7.7554741783       18.8719113870        3.9088910867
 Cl         8.9919697048       20.1030067560        2.6792955581
 Zn        18.5749888898        8.0580922305        3.9190102909
 Cl        19.8063435687        9.2948515295        2.6891652584
 Zn        18.5692113047       18.8760472102       14.7324829729
 Cl        19.8027469596       20.1079840005       13.5004372046
 Zn         7.7524368657       14.7276461948        8.0542461567
 Cl         8.9894378004       13.4988733933        9.2860541388
 Zn         7.7554719867        3.9088911756       18.8719102246
 Cl         8.9919689996        2.6792955168       20.1030030092
 Zn        18.5692089036       14.7324901662       18.8760450729
 Cl        19.8027433163       13.5004408638       20.1079793902
 Zn        18.5749901601        3.9190116769        8.0580912637
 Cl        19.8063449811        2.6891702988        9.2948531293
 Zn        14.4381034156        8.0598724793        8.0598706660
 Cl        13.1453587382        9.2620009543        9.2619993785
 Zn        14.4350301752       18.8742694315       18.8742676150
 Cl        13.1967117787       20.1038019680       20.1037957759
 Zn         3.6205178483        8.0525138728       18.8743503956
 Cl         2.3860296820        9.2853768061       20.1041275890
 Zn         3.6205158013       18.8743520426        8.0525161586
 Cl         2.3860300424       20.1041313866        9.2853795605
 Zn        14.4409149876       14.7280250886        8.0571363189
 Cl        13.2332357225       13.4776511796        9.2968467627
 Zn        14.4383211957        3.9189620025       18.8758746162
 Cl        13.2007849417        2.6871616713       20.1041691889
 Zn         3.6178774307       14.7281169293       18.8728722861
 Cl         2.3847156750       13.4949876969       20.1037406344
 Zn         3.6229120086        3.9080617978        8.0519040384
 Cl         2.3913384756        2.6748395849        9.2841492626
 Zn         7.7567481847        8.0547535010        8.0547540547
 Cl         8.9828182723        9.2903301724        9.2903272914
 Zn         7.7512724830       18.8724811168       18.8724808270
 Cl         8.9862807651       20.1036547317       20.1036565262
 Zn        18.5747531697        8.0567425405       18.8753775470
 Cl        19.8056530433        9.2917329256       20.1069527058
 Zn        18.5747529587       18.8753764660        8.0567416615
 Cl        19.8056550083       20.1069495911        9.2917311834
 Zn        14.4409132471        8.0571365110       14.7280254358
 Cl        13.2332323779        9.2968484276       13.4776541730
 Zn        14.4383221086       18.8758742271        3.9189655436
 Cl        13.2007875815       20.1041645973        2.6871601347
 Zn         3.6229127109        8.0519045758        3.9080593085
 Cl         2.3913400898        9.2841501657        2.6748367909
 Zn         3.6178782725       18.8728719294       14.7281193960
 Cl         2.3847151378       20.1037394017       13.4949904396
 Zn         7.7506248698       14.7278550295       14.7278571523
 Cl         8.9858946242       13.4967376320       13.4967391762
 Zn         7.7651338266        3.9111333216        3.9111320956
 Cl         9.0011816054        2.6807224717        2.6807204519
 Zn        18.5723294695       14.7336228925        3.9117887694
 Cl        19.8079767439       13.5031512564        2.6805322816
 Zn        18.5723302063        3.9117904770       14.7336223176
 Cl        19.8079775395        2.6805320968       13.5031515455
 Zn         5.6848954643        5.9843110731       16.8040913465
 Zn        16.5025028255       16.8083200355       16.8083207459
 Zn        16.5055420519        5.9925978328        5.9925965010
 Zn         5.6848947363       16.8040902895        5.9843117214
 Zn         5.6883884797        5.9846203767        5.9846211381
 Zn        16.5051020485       16.8091106013        5.9907172318
 Zn         5.6829564045       16.8035152708       16.8035151033
 Zn        16.5051007268        5.9907184030       16.8091085332
  N         3.5022342269        5.9809819719       16.8011059317
  N        14.3251588235        5.9853070399        5.9853057607
  N        18.6886423263       16.8051148096       16.8051309655
  N         7.8715178220       16.7998739570        5.9817732822
  N        18.6950604795        5.9869542846        5.9869506200
  N         7.8715155398        5.9817699916       16.7998767455
  N         3.5022305571       16.8010985349        5.9809768130
  N        14.3194159719       16.8011194798       16.8011165837
  N        16.5083506425        3.8017977151        5.9886963794
  N        16.5045253428       14.6190198373       16.8034920301
  N        16.5018624528       18.9913575456       16.8041176774
  N        16.5082372938        8.1726787763        5.9934847062
  N         5.6890836213       18.9878379534        5.9819369670
  N         5.6871982691        8.1672682645       16.8018142183
  N         5.6883416417        3.7962027335       16.8003149756
  N         5.6864505061       14.6155948546        5.9824072345
  N         5.6883336164       16.8003089235        3.7962025786
  N         5.6864543471        5.9824085936       14.6155954922
  N        16.5018714596       16.8041142673       18.9913578958
  N        16.5082349550        5.9934874216        8.1726773405
  N         5.6890842242        5.9819363065       18.9878360434
  N         5.6872021032       16.8018111692        8.1672716346
  N        16.5083515035        5.9886955859        3.8018001849
  N        16.5045204741       16.8034841997       14.6190153716
  N         5.6947527556        3.7967734086        5.9818538923
  N         5.6847997243       14.6156809645       16.8008496270
  N        16.5052423472       18.9923855286        5.9887628855
  N        16.5092694822        8.1707204726       16.8010567878
  N         5.6849751633       18.9872776220       16.8002746829
  N         5.6894821356        8.1671195736        5.9815243807
  N        16.5045282403        3.8007846418       16.8055002818
  N        16.5070338665       14.6205772219        5.9829982728
  N         3.4990042964       16.8004016012       16.8003914017
  N        14.3211084086       16.8031907060        5.9915943564
  N        18.6922569851       16.8062958991        5.9839239014
  N         7.8694634438       16.8002521985       16.8002527819
  N        18.6922598173        5.9839139744       16.8062856889
  N         7.8760626305        5.9840122771        5.9840123167
  N         3.5051669070        5.9799146955        5.9799215831
  N        14.3211046390        5.9916035220       16.8031855909
  N        16.5052390654        5.9887591830       18.9923879449
  N        16.5092800882       16.8010659686        8.1707166959
  N        16.5045223519       16.8055099444        3.8007859490
  N        16.5070324587        5.9829982327       14.6205745489
  N         5.6947574501        5.9818502695        3.7967713233
  N         5.6847929899       16.8008538370       14.6156835823
  N         5.6849815083       16.8002793760       18.9872767653
  N         5.6894767789        5.9815228504        8.1671199732
  C        11.0947038646       15.7421480423       15.7421455524
  H        11.0944967242       14.9666058833       14.9666023686
  C        11.1013070383        4.9263961754        4.9263973338
  H        11.1015513847        4.1508681211        4.1508702249
  C         0.2758987808       15.7436799284        4.9257565412
  H         0.2743629504       14.9678640421        4.1504825438
  C         0.2758949125        4.9257545890       15.7436811898
  H         0.2743690395        4.1504806383       14.9678653228
  C        11.0952228274        7.0438134877       15.7419051238
  H        11.0934364518        7.8191696092       14.9662382428
  C        11.0973896135       17.8584339341        4.9272435270
  H        11.0984682986       18.6340272933        4.1517173471
  C         0.2802035215        7.0413550261        4.9248621690
  H         0.2802433011        7.8172255399        4.1496532010
  C         0.2739310788       17.8577541456       15.7414253053
  H         0.2738939532       18.6330959353       14.9656646934
  C        11.0952216062       15.7419036673        7.0438123754
  H        11.0934421669       14.9662361164        7.8191684935
  C        11.0973829387        4.9272448141       17.8584357345
  H        11.0984679605        4.1517194896       18.6340299933
  C         0.2739204024       15.7414239765       17.8577521356
  H         0.2738957284       14.9656626215       18.6330920847
  C         0.2802075802        4.9248638658        7.0413528929
  H         0.2802397017        4.1496553315        7.8172229792
  C        11.1004619579        7.0431204788        7.0431191859
  H        11.1020115462        7.8187180630        7.8187161539
  C        11.0941352351       17.8585546017       17.8585540113
  H        11.0940488252       18.6341163217       18.6341161687
  C         0.2787588909        7.0421089970       17.8602367508
  H         0.2803002552        7.8178707287       18.6355552078
  C         0.2787489852       17.8602352857        7.0421110261
  H         0.2802994334       18.6355534930        7.8178729902
  C        15.4553666904       11.3941579874       15.7366754997
  H        14.6821392141       11.3939342896       14.9587514517
  C        15.4499966542        0.5776142088        4.9290712487
  H        14.6751786389        0.5785433325        4.1527725476
  C         4.6323790670       11.3908534248        4.9204438514
  H         3.8575816819       11.3905404450        4.1441323630
  C         4.6327557826        0.5722776391       15.7373115606
  H         3.8580456916        0.5729908687       14.9608919107
  C        15.4398506919       11.3979181599        7.0362309620
  H        14.6587357955       11.4006501297        7.8057834514
  C        15.4439369787        0.5762303035       17.8627010584
  H        14.6690399654        0.5763936154       18.6388988386
  C         4.6293403614       11.3910703568       17.8616300678
  H         3.8547293632       11.3908698604       18.6381356850
  C         4.6365642916        0.5732084428        7.0426314638
  H         3.8610707617        0.5743907863        7.8182617338
  C         6.7431914536       11.3916164210       15.7411777916
  H         7.5177301146       11.3918072614       14.9645701270
  C         6.7534281285        0.5712543525        4.9255694313
  H         7.5292854782        0.5701535505        4.1502918699
  C        17.5681708364       11.3948507006        4.9303661289
  H        18.3462947430       11.3930970010        4.1573879860
  C        17.5582187043        0.5757945346       15.7431909245
  H        18.3329944114        0.5756867537       14.9667869632
  C         6.7470567251       11.3915408483        7.0400294059
  H         7.5217469807       11.3916392922        7.8165097178
  C         6.7474841347        0.5710484488       17.8565990499
  H         7.5224725420        0.5703990017       18.6327367419
  C        17.5662472312       11.3949567832       17.8601673864
  H        18.3395648712       11.3952003207       18.6379957066
  C        17.5639039474        0.5764081056        7.0489603601
  H        18.3382522873        0.5756671056        7.8257218925
  C        15.4553740920       15.7366688545       11.3941620057
  H        14.6821461274       14.9587463413       11.3939261948
  C        15.4499963314        4.9290681060        0.5776149773
  H        14.6751799528        4.1527692487        0.5785460183
  C         4.6327561797       15.7373106070        0.5722813748
  H         3.8580463607       14.9608910234        0.5729883714
  C         4.6323767746        4.9204457688       11.3908500642
  H         3.8575789809        4.1441347219       11.3905434854
  C         6.7431916488       15.7411779747       11.3916162708
  H         7.5177300216       14.9645703065       11.3918110028
  C         6.7534292951        4.9255691820        0.5712546301
  H         7.5292874025        4.1502919624        0.5701504349
  C        17.5582211171       15.7431973121        0.5757883524
  H        18.3329966503       14.9667918102        0.5756891786
  C        17.5681664822        4.9303650994       11.3948491382
  H        18.3462915062        4.1573879405       11.3930964119
  C        15.4398464707        7.0362289194       11.3979161201
  H        14.6587323659        7.8057821543       11.4006475568
  C        15.4439411002       17.8627066412        0.5762380737
  H        14.6690432888       18.6389053222        0.5763926359
  C         4.6365646788        7.0426303423        0.5732042816
  H         3.8610702836        7.8182606590        0.5743892028
  C         4.6293407958       17.8616305240       11.3910765692
  H         3.8547298091       18.6381358161       11.3908736152
  C         6.7470555343        7.0400302738       11.3915457258
  H         7.5217462745        7.8165102707       11.3916375885
  C         6.7474841195       17.8565984217        0.5710431216
  H         7.5224720733       18.6327364365        0.5704000034
  C        17.5639014810        7.0489611771        0.5764118253
  H        18.3382484916        7.8257230731        0.5756703279
  C        17.5662568440       17.8601613901       11.3949452374
  H        18.3395738777       18.6379893648       11.3951998650
 Xe        16.6054001372       10.5595822320       10.5595842700
