     409
 i =     150, E =    -5183.7568414447
  N         2.9669656988        5.2084739657       16.0331911239
  C         1.6482974407        5.4784170379       16.2986389742
  N        13.7709472525        5.2050297411        5.2050270388
  C        12.4545927270        5.4786910086        5.4786884491
  N        19.6563553322       17.5753914627       16.0189498258
  C        20.9742883744       17.3076812747       16.2915386856
  N         8.8286043810       17.5838453532        5.2188500882
  C        10.1465249753       17.3093643202        5.4831886430
  N        19.6355735701        5.1992405438        6.7555390402
  C        20.9531271780        5.4744633327        6.4905438965
  N         8.8286079899        5.2188495287       17.5838524157
  C        10.1465250262        5.4831923540       17.3093684064
  N         2.9619400472       17.5863791923        6.7674118261
  C         1.6448525122       17.3134363830        6.4957013445
  N        13.7966994057       17.5745328385       17.5745295154
  C        12.4787095210       17.3056586749       17.3056595386
  N        15.9213236311        3.0446768093        5.1994557215
  C        16.1926018890        1.7271196323        5.4696830582
  N        15.9482071050       13.8648060702       16.0165167404
  C        16.2170221168       12.5473022054       16.2865424298
  N        15.9475560368       19.7285491361       17.5737583513
  C        16.2148530831       21.0462636524       17.3023568586
  N        15.9342404864        8.9102297719        6.7560672459
  C        16.2046714689       10.2274480929        6.4858334802
  N         6.6742653540       19.7460089257        5.2198920952
  C         6.4016408473       21.0634777370        5.4887170017
  N         6.6731775924        8.9220923821       16.0282322426
  C         6.4044803247       10.2397572174       16.2983603346
  N         6.6811516803        3.0608376968       17.5910934135
  C         6.4167499654        1.7421827088       17.3192053726
  N         6.6660939436       13.8774248526        6.7705462686
  C         6.3928858373       12.5603920937        6.5027478454
  N         5.1271531250       16.0344225020        3.0571236333
  C         5.4012969805       16.3027646159        1.7401272782
  N         5.1135921223        5.2125202163       13.8797858683
  C         5.3781457189        5.4856111142       12.5617240101
  N        17.5004686793       16.0157178388       19.7294825405
  C        17.2293211635       16.2849569441       21.0470181845
  N        17.4852277894        5.1964401261        8.9088150732
  C        17.2181092154        5.4674640678       10.2265676067
  N         5.1167443995        6.7733169593       19.7438187188
  C         5.3845812753        6.5036239353       21.0619934212
  N         5.1194388244       17.5860767525        8.9232207479
  C         5.3901270123       17.3160470043       10.2406187709
  N        17.4782946797        6.7544797974        3.0459879165
  C        17.2089145274        6.4854347293        1.7283402105
  N        17.5021456173       17.5737636874       13.8640233169
  C        17.2317470106       17.3037269608       12.5466137673
  N         5.1079291830        3.0605320607        6.7730000704
  C         5.3800298376        1.7430068369        6.5034959671
  N         5.1264668607       13.8790335133       17.5884450956
  C         5.3933313247       12.5610139072       17.3173289093
  N        17.4874340630       19.7311905327        6.7549685821
  C        17.2139503413       21.0481846785        6.4858717031
  N        17.4935893311        8.9087976221       17.5773224147
  C        17.2274611878       10.2265549743       17.3053798657
  N         5.1356314701       19.7418834757       16.0335131186
  C         5.4056875457       21.0596547860       16.3021683432
  N         5.1034095559        8.9240304157        5.2182986631
  C         5.3739453779       10.2415067113        5.4880590479
  N        17.4946798347        3.0454061856       16.0147553303
  C        17.2262330301        1.7274967038       16.2844749874
  N        17.4937877835       13.8639862070        5.2001440847
  C        17.2223509267       12.5466094235        5.4692035726
  N         2.9736447615       16.0333057621       17.5890798528
  C         1.6557834849       16.2983034669       17.3142975855
  N        13.7868881119       16.0162894647        6.7573055214
  C        12.4687632284       16.2878466182        6.4902840122
  N        19.6495848321       16.0199283796        5.2017239345
  C        20.9667052967       16.2920554469        5.4745469005
  N         8.8361748850       16.0247290249       16.0247263961
  C        10.1549544093       16.2926617740       16.2926618299
  N        19.6446840101        6.7569968296       17.5776559206
  C        20.9633235292        6.4903104628       17.3085304386
  N         8.8213927927        6.7745884283        6.7745954016
  C        10.1382877078        6.5017977211        6.5017986498
  N         2.9515290637        6.7697052069        5.2142266427
  C         1.6337953252        6.4975180467        5.4815472152
  N        13.7868887993        6.7573109750       16.0162859956
  C        12.4687653761        6.4902885383       16.2878443407
  N        15.9338693710        5.1977045105       19.7280236911
  C        16.1988348332        5.4691286900       21.0463185627
  N        15.9418014919       16.0184254666        8.9102382137
  C        16.2135509774       16.2874882035       10.2274307614
  N        15.9401340082       17.5713306548        3.0439129391
  C        16.2111415616       17.3013005700        1.7265725159
  N        15.9406936179        6.7580459235       13.8648833898
  C        16.2081194075        6.4868651619       12.5473225830
  N         6.6641552907        5.2180662173        3.0625375133
  C         6.3965681228        5.4880260808        1.7443799076
  N         6.6781105843       16.0294180978       13.8771920159
  C         6.4069694884       16.2990921486       12.5599395918
  N         6.6934509590       17.5877603424       19.7431278712
  C         6.4224739448       17.3175127084       21.0608328874
  N         6.6600014449        6.7729152236        8.9237836657
  C         6.3904498495        6.5032987577       10.2409506857
  N        19.6446855502       17.5776489937        6.7569923343
  C        20.9633254962       17.3085260433        6.4903058948
  N         8.8413337797       17.5808404434       17.5808332801
  C        10.1580811621       17.3087112241       17.3087087786
  N         2.9515347778        5.2142259811        6.7697001252
  C         1.6337960568        5.4815408119        6.4975202617
  N        13.7851981787        5.2003488616       17.5720865601
  C        12.4677154430        5.4743820033       17.3041499542
  N         2.9736480220       17.5890804160       16.0333045945
  C         1.6557834312       17.3143032171       16.2982967131
  N        13.7851965379       17.5720896699        5.2003409251
  C        12.4677159950       17.3041505866        5.4743770382
  N        19.6495807453        5.2017297765       16.0199372275
  C        20.9667022009        5.4745506190       16.2920594772
  N         8.8154340685        5.2188202761        5.2188238136
  C        10.1339646507        5.4857957281        5.4857950052
  N         6.6934545335       19.7431330271       17.5877580690
  C         6.4224718532       21.0608336221       17.3175098749
  N         6.6599976291        8.9237792927        6.7729188121
  C         6.3904519142       10.2409513681        6.5033017088
  N         6.6641590072        3.0625334701        5.2180666296
  C         6.3965695863        1.7443770797        5.4880262872
  N         6.6781091996       13.8771933171       16.0294185187
  C         6.4069690370       12.5599415036       16.2990921975
  N        15.9401371177        3.0439159973       17.5713313854
  C        16.2111359352        1.7265768316       17.3012981066
  N        15.9406894666       13.8648777117        6.7580352437
  C        16.2081196897       12.5473170651        6.4868591865
  N        15.9338555467       19.7280199040        5.1977028290
  C        16.1988377972       21.0463101545        5.4691237607
  N        15.9418151868        8.9102372131       16.0184200696
  C        16.2135448978       10.2274368471       16.2874907986
  N        17.4874437126        6.7549752370       19.7312026419
  C        17.2139486841        6.4858826797       21.0481961120
  N        17.4935786240       17.5773288300        8.9087915584
  C        17.2274647927       17.3053736187       10.2265466185
  N         5.1079225604        6.7729972474        3.0605348360
  C         5.3800283163        6.5034931599        1.7430109237
  N         5.1264716099       17.5884474019       13.8790323517
  C         5.3933328213       17.3173307655       12.5610140515
  N        17.4946772613       16.0147526246        3.0454022356
  C        17.2262363539       16.2844790952        1.7274925175
  N        17.4937894325        5.2001584665       13.8639952896
  C        17.2223510193        5.4692094371       12.5466165392
  N         5.1356264671       16.0335154710       19.7418812420
  C         5.4056868072       16.3021695971       21.0596530220
  N         5.1034124660        5.2182975715        8.9240316296
  C         5.3739440488        5.4880583020       10.2415089377
  N        17.5004634424       19.7294886830       16.0157153938
  C        17.2293175521       21.0470278829       16.2849529514
  N        17.4852180419        8.9088068262        5.1964449003
  C        17.2181057558       10.2265601622        5.4674662090
  N         5.1271486270        3.0571251791       16.0344213973
  C         5.4012936155        1.7401289600       16.3027656598
  N         5.1135998640       13.8797863781        5.2125206497
  C         5.3781512335       12.5617234040        5.4856085799
  N        17.4783033732        3.0459783770        6.7544928656
  C        17.2089223640        1.7283321010        6.4854358799
  N        17.5021475156       13.8640308611       17.5737543238
  C        17.2317377112       12.5466218535       17.3037308654
  N         5.1167417536       19.7438143580        6.7733105976
  C         5.3845775317       21.0619908356        6.5036211462
  N         5.1194356312        8.9232249507       17.5860823688
  C         5.3901275337       10.2406197963       17.3160479753
  N        19.6355687504        6.7555222498        5.1992608132
  C        20.9531257856        6.4905347682        5.4744757327
  N         8.8293753347        6.7704933806       16.0234877823
  C        10.1471750616        6.4971190979       16.2911892451
  N         2.9619384179        6.7674149261       17.5863796558
  C         1.6448496020        6.4957041498       17.3134382092
  N        13.7789027836        6.7611809371        6.7611766266
  C        12.4596796501        6.4947718979        6.4947688194
  N         2.9669697225       16.0331917820        5.2084721529
  C         1.6482982321       16.2986358614        5.4784132740
  N        13.7936497216       16.0182033511       16.0182005959
  C        12.4763656449       16.2895867697       16.2895884177
  N        19.6563552571       16.0189591791       17.5753845200
  C        20.9742875385       16.2915473039       17.3076745711
  N         8.8293771459       16.0234812152        6.7704940794
  C        10.1471746631       16.2911855471        6.4971161667
  N         6.6811560595       17.5910926325        3.0608350260
  C         6.4167545916       17.3192042937        1.7421802342
  N         6.6660850074        6.7705482849       13.8774275856
  C         6.3928794647        6.5027511412       12.5603934482
  N         6.6742692579        5.2198971965       19.7460124311
  C         6.4016424824        5.4887223402       21.0634785648
  N         6.6731808930       16.0282275829        8.9220915476
  C         6.4044822152       16.2983571845       10.2397585890
  N        15.9475600567       17.5737605166       19.7285428328
  C        16.2148595723       17.3023574989       21.0462569075
  N        15.9342507979        6.7560627155        8.9102301602
  C        16.2046743210        6.4858323876       10.2274538177
  N        15.9213156263        5.1994427143        3.0446776732
  C        16.1925939485        5.4696804456        1.7271254999
  N        15.9482045485       16.0165263757       13.8648017754
  C        16.2170303395       16.2865384310       12.5472964140
 Zn        14.6562526173       14.7240037221       14.7239986441
 Cl        13.4217769047       13.4927388151       13.4927372358
 Zn        14.6256589941        3.9082612596        3.9082814061
 Cl        13.3886186567        2.6787138458        2.6787282317
 Zn         3.8330670579       14.7453898264        3.9124521717
 Cl         2.5994157964       13.5128218994        2.6807214765
 Zn         3.8330603889        3.9124466347       14.7453839839
 Cl         2.5994044168        2.6807166428       13.5128184901
 Zn         7.9603602607        8.0608062345       14.7305209468
 Cl         9.1830099177        9.2965385068       13.4913620047
 Zn         7.9662139520       18.8820187578        3.9331063620
 Cl         9.2029912016       20.1133505746        2.7023910424
 Zn        18.7735991624        8.0470215074        3.9026885027
 Cl        20.0062474003        9.2770308781        2.6685132443
 Zn        18.7915934897       18.8687776651       14.7238306533
 Cl        20.0258801319       20.0979948443       13.4901009583
 Zn         7.9603653093       14.7305137235        8.0608099273
 Cl         9.1830151085       13.4913558912        9.2965434951
 Zn         7.9662132754        3.9330997100       18.8820220694
 Cl         9.2029944025        2.7023893092       20.1133567587
 Zn        18.7915994712       14.7238344858       18.8687687657
 Cl        20.0258784211       13.4901033999       20.0979922957
 Zn        18.7736032773        3.9026692066        8.0470495037
 Cl        20.0062594537        2.6684894617        9.2770507004
 Zn        14.6475272870        8.0531652892        8.0531773131
 Cl        13.4150630707        9.2857977599        9.2858143669
 Zn        14.6587210053       18.8690523783       18.8690518960
 Cl        13.4257415322       20.1010171520       20.1010188761
 Zn         3.8266503781        8.0617289207       18.8775197310
 Cl         2.5945240786        9.2986950308       20.1062390025
 Zn         3.8266585956       18.8775139341        8.0617255577
 Cl         2.5945295825       20.1062318839        9.2986870789
 Zn        14.6518572960       14.7242115087        8.0523909158
 Cl        13.4180326950       13.4937921304        9.2855159103
 Zn        14.6487281517        3.9029890987       18.8642754369
 Cl        13.4132466731        2.6695911950       20.0927304733
 Zn         3.8392611147       14.7446712979       18.8816397317
 Cl         2.6088153516       13.5118507128       20.1163148981
 Zn         3.8138902034        3.9244936745        8.0620202459
 Cl         2.5829375583        2.6922281938        9.2966368150
 Zn         7.9516952598        8.0654905200        8.0654919926
 Cl         9.1683220802        9.3060188938        9.3060244722
 Zn         7.9887619457       18.8767957856       18.8767945661
 Cl         9.2268238614       20.1061345511       20.1061310775
 Zn        18.7794789475        8.0482035858       18.8735262911
 Cl        20.0129530865        9.2792021382       20.1063422400
 Zn        18.7794761745       18.8735252699        8.0481859212
 Cl        20.0129445184       20.1063419134        9.2791910215
 Zn        14.6518643095        8.0523971401       14.7242136396
 Cl        13.4180355626        9.2855167650       13.4937940862
 Zn        14.6487214647       18.8642872549        3.9029742275
 Cl        13.4132371054       20.0927415354        2.6695717883
 Zn         3.8138824801        8.0620233976        3.9244860298
 Cl         2.5829266636        9.2966461735        2.6922294636
 Zn         3.8392662959       18.8816384245       14.7446805224
 Cl         2.6088285507       20.1163058402       13.5118463105
 Zn         7.9660328049       14.7324776489       14.7324795497
 Cl         9.1928531284       13.4971080333       13.4971121853
 Zn         7.9538221342        3.9282280084        3.9282235949
 Cl         9.1871525186        2.6955294124        2.6955297677
 Zn        18.7856286736       14.7238643579        3.9078527259
 Cl        20.0194035929       13.4894812017        2.6788478658
 Zn        18.7856250483        3.9078703292       14.7238638795
 Cl        20.0193954161        2.6788571889       13.4894877885
 Zn         5.8965906230        5.9962666370       16.8140830042
 Zn        16.7230861532       16.7940767190       16.7940720310
 Zn        16.7083086685        5.9744213263        5.9743967278
 Zn         5.8965913249       16.8140818378        5.9962631671
 Zn         5.8874286524        5.9982867733        5.9982917308
 Zn        16.7167648810       16.7946871660        5.9759682860
 Zn         5.9053239049       16.8145380421       16.8145345709
 Zn        16.7167648017        5.9759261455       16.7947333298
  N         3.7108367657        5.9882812103       16.8116691224
  N        14.5213133815        5.9812813440        5.9812848272
  N        18.9100638200       16.7959259491       16.7959191656
  N         8.0825662041       16.8057524179        5.9968933607
  N        18.8892795012        5.9746571887        5.9746713030
  N         8.0825664854        5.9968928163       16.8057584360
  N         3.7108392081       16.8116683826        5.9882792249
  N        14.5414222070       16.7957308945       16.7957329684
  N        16.6998890433        3.7917118625        5.9764977696
  N        16.7257994940       14.6109459795       16.7948308774
  N        16.7252475561       18.9822592546       16.7956326107
  N        16.7092503744        8.1626868967        5.9763867739
  N         5.8967949579       18.9983438821        5.9969254878
  N         5.8958045071        8.1763503941       16.8072059302
  N         5.9014021646        3.8057537500       16.8137797369
  N         5.8923787325       14.6254330066        5.9901278022
  N         5.9014060481       16.8137793210        3.8057505076
  N         5.8923724630        5.9901296987       14.6254348801
  N        16.7252481469       16.7956300274       18.9822529542
  N        16.7092481303        5.9763728822        8.1626886302
  N         5.8967978305        5.9969316173       18.9983475756
  N         5.8958065973       16.8072008383        8.1763480184
  N        16.6998896028        5.9764790718        3.7917143764
  N        16.7258020074       16.7948355930       14.6109402260
  N         5.8850363647        3.8081892126        5.9953643237
  N         5.9034801994       14.6249138907       16.8093231340
  N        16.7131869977       18.9828397128        5.9752877215
  N        16.7165795397        8.1627621869       16.7983372403
  N         5.9144239845       18.9961995637       16.8111688483
  N         5.8816196009        8.1774710391        5.9956044039
  N        16.7170904344        3.7912339818       16.7934352483
  N        16.7185857182       14.6110083356        5.9800569003
  N         3.7201814181       16.8138938218       16.8138922597
  N        14.5322776008       16.7933109403        5.9771002042
  N        18.9008941655       16.7981395867        5.9778484440
  N         8.0922985696       16.8040312722       16.8040261025
  N        18.9008938440        5.9778442422       16.7981545148
  N         8.0718920954        5.9979325063        5.9979410218
  N         3.6982042960        5.9932307357        5.9932300449
  N        14.5322788340        5.9771048091       16.7933095828
  N        16.7131921914        5.9752959421       18.9828510123
  N        16.7165888316       16.7983201117        8.1627606519
  N        16.7170969725       16.7934407809        3.7912344104
  N        16.7185613862        5.9800407072       14.6110160270
  N         5.8850318542        5.9953608512        3.8081935495
  N         5.9034822124       16.8093248831       14.6249117112
  N         5.9144192220       16.8111725949       18.9961957252
  N         5.8816234249        5.9955995074        8.1774739196
  C        11.3141704982       15.7408330520       15.7408352381
  H        11.3121899025       14.9653007403       14.9653020442
  C        11.2910468530        4.9318549006        4.9318529496
  H        11.2856669111        4.1562613944        4.1562627717
  C         0.4899076967       15.7448702907        4.9265257404
  H         0.4940629835       14.9692401853        4.1510738540
  C         0.4899025247        4.9265286762       15.7448733595
  H         0.4940563981        4.1510771095       14.9692449927
  C        11.3087255099        7.0431559337       15.7385471424
  H        11.3103194879        7.8179983580       14.9623385291
  C        11.3062977537       17.8574184918        4.9288998378
  H        11.3047916316       18.6337870965        4.1541345569
  C         0.4735592527        7.0450029734        4.9281452144
  H         0.4737385091        7.8209537548        4.1529658746
  C         0.4950792136       17.8608422669       15.7443125324
  H         0.4953712065       18.6363945999       14.9687593678
  C        11.3087277671       15.7385468527        7.0431525621
  H        11.3103225797       14.9623389153        7.8179955226
  C        11.3063037365        4.9289055130       17.8574205690
  H        11.3048017429        4.1541411880       18.6337904592
  C         0.4950775633       15.7443209030       17.8608376481
  H         0.4953732317       14.9687700362       18.6363899124
  C         0.4735663641        4.9281326653        7.0450068336
  H         0.4737491744        4.1529502948        7.8209537269
  C        11.3022164559        7.0485518330        7.0485507564
  H        11.3076984822        7.8240575516        7.8240590757
  C        11.3198016820       17.8575283978       17.8575277812
  H        11.3219371979       18.6331126694       18.6331120291
  C         0.4817420735        7.0438190312       17.8605788930
  H         0.4779792615        7.8198248794       18.6356537257
  C         0.4817433031       17.8605758628        7.0438153303
  H         0.4779845344       18.6356499002        7.8198221350
  C        15.6656299750       11.3879393409       15.7353805080
  H        14.8909571374       11.3888811865       14.9589198989
  C        15.6449428501        0.5654062952        4.9192401251
  H        14.8693903853        0.5631754220        4.1436924870
  C         4.8250444260       11.4020891517        4.9365392253
  H         4.0501724336       11.4026300679        4.1603591957
  C         4.8534779042        0.5790178386       15.7515542266
  H         4.0777082160        0.5775625847       14.9761199042
  C        15.6566263202       11.3879421472        7.0379053342
  H        14.8822964729       11.3888339593        7.8147396471
  C        15.6627740682        0.5658093408       17.8526543658
  H        14.8876498768        0.5648643529       18.6286649247
  C         4.8421751822       11.4013045996       17.8681792295
  H         4.0681244550       11.4018442482       18.6452139538
  C         4.8315772025        0.5814793475        7.0536277183
  H         4.0557882981        0.5797590585        7.8289390991
  C         6.9550624931       11.3994368060       15.7468394077
  H         7.7291464306       11.3987181314       14.9697161891
  C         6.9499663531        0.5849484058        4.9383857223
  H         7.7262283041        0.5865315775        4.1635253487
  C        17.7696943035       11.3859981959        4.9165756624
  H        18.5439038763       11.3851961460        4.1396769344
  C        17.7774289026        0.5678683151       15.7332789228
  H        18.5519309647        0.5689389100       14.9566475123
  C         6.9412810430       11.4001522669        7.0547240994
  H         7.7157889921       11.3991073521        7.8313410146
  C         6.9704942754        0.5824994206       17.8681699734
  H         7.7460679380        0.5841743561       18.6436358331
  C        17.7796889978       11.3859803385       17.8557577274
  H        18.5542481106       11.3850174714       18.6323245209
  C        17.7614178274        0.5695119883        7.0366731859
  H        18.5368766314        0.5716170471        7.8123953648
  C        15.6656352962       15.7353745591       11.3879387728
  H        14.8909588528       14.9589204071       11.3888754573
  C        15.6449385635        4.9192418376        0.5654048099
  H        14.8693905252        4.1436884965        0.5631714722
  C         4.8534814866       15.7515551662        0.5790155214
  H         4.0777121951       14.9761194067        0.5775632401
  C         4.8250392986        4.9365399040       11.4020897715
  H         4.0501664470        4.1603609302       11.4026287107
  C         6.9550614194       15.7468395001       11.3994354574
  H         7.7291463300       14.9697151332       11.3987199072
  C         6.9499680532        4.9383863677        0.5849536658
  H         7.7262277771        4.1635257363        0.5865368046
  C        17.7774348398       15.7332808661        0.5678640218
  H        18.5519338765       14.9566506868        0.5689271333
  C        17.7696957946        4.9165786999       11.3860085466
  H        18.5439043979        4.1396793166       11.3852186234
  C        15.6566306956        7.0379060288       11.3879424051
  H        14.8822989654        7.8147416734       11.3888333670
  C        15.6627789146       17.8526576384        0.5658036655
  H        14.8876550243       18.6286657003        0.5648520736
  C         4.8315753552        7.0536290746        0.5814843221
  H         4.0557867039        7.8289369660        0.5797669827
  C         4.8421773749       17.8681782545       11.4013003142
  H         4.0681257379       18.6452143898       11.4018427067
  C         6.9412777236        7.0547264662       11.4001561894
  H         7.7157843422        7.8313422507       11.3991054369
  C         6.9704970504       17.8681670570        0.5824954201
  H         7.7460747717       18.6436323949        0.5841786521
  C        17.7614103306        7.0366775713        0.5695250788
  H        18.5368745554        7.8123977211        0.5716399705
  C        17.7796984190       17.8557537361       11.3859735015
  H        18.5542520005       18.6323246371       11.3850065007
 Xe         5.0282120743       10.3569038275       10.3569044254
