     409
 i =     150, E =    -5183.7526563776
  N         2.7065068105        5.2057659629       16.0235690971
  C         1.3885202096        5.4763114423       16.2926191714
  N        13.5245546079        5.2043339251        5.2043338344
  C        12.2068239228        5.4746292575        5.4746294764
  N        19.3918558747       17.5777626156       16.0216030648
  C        20.7097215919       17.3070348387       16.2909836156
  N         8.5703252102       17.5801979018        5.2074211184
  C         9.8881001604       17.3083225620        5.4754920937
  N        19.3862787287        5.2029590177        6.7592670944
  C        20.7041501450        5.4748325013        6.4909146674
  N         8.5703234351        5.2074224553       17.5801988582
  C         9.8880984746        5.4754934927       17.3083235721
  N         2.7055738997       17.5796249040        6.7623863293
  C         1.3879133126       17.3086058348        6.4924898034
  N        13.5296917601       17.5779169791       17.5779174662
  C        12.2119856970       17.3081733066       17.3081734408
  N        15.6765826646        3.0488147669        5.2031783215
  C        15.9460980332        1.7310945140        5.4731187707
  N        15.6835850160       13.8687715577       16.0199810372
  C        15.9540532672       12.5512171893       16.2887058415
  N        15.6826999458       19.7329145537       17.5775847739
  C        15.9513814630       21.0504414558       17.3061923265
  N        15.6825278222        8.9139405549        6.7638860551
  C        15.9552870543       10.2311455447        6.4963302340
  N         6.4169336037       19.7358825923        5.2086896216
  C         6.1472411029       21.0535340790        5.4790672671
  N         6.4172212078        8.9161006284       16.0237725954
  C         6.1483173498       10.2337534923       16.2943117748
  N         6.4189001254        3.0527904218       17.5812105852
  C         6.1518055193        1.7348596564       17.3094822935
  N         6.4162695087       13.8712999253        6.7615992209
  C         6.1473452574       12.5537736148        6.4908291527
  N         4.8639972957       16.0248373763        3.0519155696
  C         5.1362483156       16.2931215410        1.7343699665
  N         4.8618663581        5.2049204621       13.8715966038
  C         5.1320464298        5.4742394144       12.5539334117
  N        17.2364772800       16.0196900605       19.7326299171
  C        16.9660750099       16.2888978861       21.0503701349
  N        17.2360436501        5.2062359559        8.9130970406
  C        16.9698265884        5.4789444692       10.2307158883
  N         4.8612113788        6.7646139422       19.7357853933
  C         5.1313258761        6.4951640357       21.0533950146
  N         4.8621554508       17.5804647621        8.9166420389
  C         5.1328290125       17.3108291705       10.2340429515
  N        17.2296460383        6.7610855493        3.0487186035
  C        16.9604893766        6.4905930784        1.7310449996
  N        17.2382401692       17.5765209149       13.8683677411
  C        16.9692778640       17.3053944038       12.5508769820
  N         4.8588068992        3.0515213360        6.7634416138
  C         5.1300069482        1.7339163785        6.4946551474
  N         4.8642981680       13.8719180777       17.5814829034
  C         5.1337888283       12.5543222573       17.3113806110
  N        17.2309712957       19.7329307486        6.7596612274
  C        16.9610725222       21.0505304491        6.4897979021
  N        17.2347341882        8.9130665075       17.5775599646
  C        16.9675510861       10.2306986766       17.3058295616
  N         4.8661907575       19.7359952980       16.0244070560
  C         5.1374192356       21.0536546054       16.2929403846
  N         4.8607565663        8.9160985984        5.2054729605
  C         5.1316280379       10.2335934611        5.4745882814
  N        17.2347212386        3.0490349417       16.0184630131
  C        16.9652770504        1.7311769184       16.2882175028
  N        17.2385572245       13.8683696544        5.2069527834
  C        16.9709513312       12.5508267434        5.4791074561
  N         2.7088664124       16.0242150896       17.5804966198
  C         1.3910897341       16.2921972179       17.3082667877
  N        13.5269549150       16.0193302983        6.7585838699
  C        12.2092531198       16.2898741749        6.4889604970
  N        19.3892794053       16.0228712829        5.2041562817
  C        20.7070001134       16.2923897523        5.4755402522
  N         8.5722215835       16.0237607690       16.0237603254
  C         9.8902482892       16.2931094117       16.2931089756
  N        19.3884080630        6.7601256027       17.5793642035
  C        20.7064535973        6.4914777263       17.3085890480
  N         8.5683096749        6.7611192725        6.7611193050
  C         9.8858949970        6.4907867044        6.4907869526
  N         2.7035515367        6.7635839241        5.2072621383
  C         1.3856951030        6.4929806928        5.4768959052
  N        13.5269533635        6.7585843321       16.0193302876
  C        12.2092516082        6.4889613153       16.2898749233
  N        15.6779208900        5.2013623284       19.7327936407
  C        15.9467222920        5.4721993172       21.0504795669
  N        15.6805699848       16.0204765731        8.9138251237
  C        15.9525299785       16.2889163880       10.2311372724
  N        15.6810031855       17.5760301013        3.0484393043
  C        15.9505705558       17.3054267997        1.7309153757
  N        15.6846998217        6.7641503588       13.8684009519
  C        15.9562542074        6.4963095801       12.5509740097
  N         6.4134412875        5.2071670783        3.0520271586
  C         6.1455562764        5.4783443925        1.7342107685
  N         6.4188273484       16.0248554830       13.8718875192
  C         6.1491165286       16.2948221637       12.5542554748
  N         6.4221271337       17.5806281392       19.7362872449
  C         6.1532999549       17.3091488565       21.0539393074
  N         6.4158207007        6.7620571786        8.9159647630
  C         6.1471380403        6.4910764557       10.2334968912
  N        19.3884103815       17.5793637516        6.7601255378
  C        20.7064558309       17.3085877393        6.4914782518
  N         8.5737886544       17.5797117239       17.5797117213
  C         9.8912126985       17.3091127147       17.3091126856
  N         2.7035513186        5.2072596845        6.7635832260
  C         1.3856949247        5.4768941455        6.4929803251
  N        13.5268455792        5.2025662230       17.5761210987
  C        12.2091900177        5.4732104230       17.3062974171
  N         2.7088664187       17.5804977680       16.0242149599
  C         1.3910897490       17.3082678002       16.2921969919
  N        13.5268467876       17.5761203251        5.2025651973
  C        12.2091914349       17.3062963104        5.4732092638
  N        19.3892775106        5.2041560414       16.0228719116
  C        20.7069980952        5.4755395900       16.2923912269
  N         8.5672920467        5.2049974042        5.2049981029
  C         9.8853510088        5.4747385755        5.4747393011
  N         6.4221270933       19.7362879565       17.5806275160
  C         6.1532994717       21.0539400559       17.3091485477
  N         6.4158211316        8.9159645634        6.7620582907
  C         6.1471390017       10.2334967316        6.4910772588
  N         6.4134413517        3.0520267292        5.2071661279
  C         6.1455567855        1.7342102369        5.4783432340
  N         6.4188274560       13.8718875743       16.0248565541
  C         6.1491166794       12.5542555716       16.2948237055
  N        15.6810001260        3.0484394248       17.5760281998
  C        15.9505663973        1.7309154880       17.3054236437
  N        15.6847000811       13.8684016853        6.7641485764
  C        15.9562554178       12.5509746176        6.4963092155
  N        15.6779204865       19.7327929828        5.2013648900
  C        15.9467218702       21.0504788384        5.4722019450
  N        15.6805682382        8.9138257685       16.0204759740
  C        15.9525260774       10.2311377294       16.2889186675
  N        17.2309690316        6.7596610098       19.7329314106
  C        16.9610711504        6.4897968548       21.0505311185
  N        17.2347359250       17.5775606562        8.9130666770
  C        16.9675549578       17.3058274007       10.2306987138
  N         4.8588061278        6.7634418940        3.0515224051
  C         5.1300059787        6.4946558771        1.7339173276
  N         4.8642983957       17.5814821717       13.8719176033
  C         5.1337889404       17.3113792603       12.5543218598
  N        17.2347245283       16.0184650441        3.0490347190
  C        16.9652812905       16.2882206865        1.7311766657
  N        17.2385572047        5.2069546999       13.8683692975
  C        16.9709502491        5.4791079220       12.5508263870
  N         4.8661903505       16.0244082046       19.7359947040
  C         5.1374194010       16.2929410706       21.0536539428
  N         4.8607552689        5.2054725970        8.9160986006
  C         5.1316264928        5.4745879993       10.2335935412
  N        17.2364753854       19.7326302402       16.0196879475
  C        16.9660715323       21.0503703821       16.2888944863
  N        17.2360422910        8.9130972610        5.2062342267
  C        16.9698268738       10.2307160958        5.4789442012
  N         4.8639959261        3.0519163404       16.0248376500
  C         5.1362473195        1.7343707338       16.2931215850
  N         4.8618685721       13.8715964991        5.2049199981
  C         5.1320483624       12.5539333640        5.4742393466
  N        17.2296463395        3.0487181187        6.7610867931
  C        16.9604898402        1.7310443523        6.4905946945
  N        17.2382391454       13.8683677465       17.5765222234
  C        16.9692744777       12.5508770159       17.3053976676
  N         4.8612132298       19.7357843430        6.7646128095
  C         5.1313273311       21.0533940069        6.4951629130
  N         4.8621534201        8.9166424540       17.5804652451
  C         5.1328279738       10.2340433294       17.3108303838
  N        19.3862791399        6.7592686573        5.2029600253
  C        20.7041503710        6.4909155068        5.4748335631
  N         8.5703420776        6.7623239828       16.0231193348
  C         9.8881169114        6.4908952233       16.2916819412
  N         2.7055718236        6.7623865418       17.5796256088
  C         1.3879111768        6.4924893090       17.3086072351
  N        13.5248564237        6.7607690163        6.7607684383
  C        12.2070798051        6.4907220375        6.4907218434
  N         2.7065087964       16.0235681764        5.2057658921
  C         1.3885222365       16.2926176691        5.4763120952
  N        13.5288576325       16.0215940372       16.0215932408
  C        12.2113315683       16.2921033445       16.2921027398
  N        19.3918558672       16.0216027735       17.5777612781
  C        20.7097215954       16.2909836650       17.3070337684
  N         8.5703438631       16.0231186708        6.7623228336
  C         9.8881186381       16.2916811402        6.4908939892
  N         6.4189021461       17.5812098297        3.0527894683
  C         6.1518068913       17.3094818700        1.7348587811
  N         6.4162677231        6.7615990159       13.8712999812
  C         6.1473437597        6.4908287686       12.5537736721
  N         6.4169320230        5.2086913077       19.7358831832
  C         6.1472399942        5.4790687340       21.0535347534
  N         6.4172233692       16.0237720372        8.9161005356
  C         6.1483183098       16.2943104671       10.2337533619
  N        15.6827019820       17.5775869976       19.7329145603
  C        15.9513850049       17.3061958036       21.0504414316
  N        15.6825290028        6.7638874796        8.9139400915
  C        15.9552866361        6.4963303337       10.2311451155
  N        15.6765842382        5.2031749017        3.0488157451
  C        15.9460990500        5.4731156236        1.7310953707
  N        15.6835860852       16.0199796655       13.8687710574
  C        15.9540567254       16.2887025110       12.5512167461
 Zn        14.3905984811       14.7271615780       14.7271615184
 Cl        13.1579392884       13.4950907738       13.4950912238
 Zn        14.3867533589        3.9093429750        3.9093450428
 Cl        13.1506139385        2.6788421244        2.6788438103
 Zn         3.5708890920       14.7315125960        3.9104853087
 Cl         2.3402531180       13.4986361021        2.6770531205
 Zn         3.5708877497        3.9104861250       14.7315133960
 Cl         2.3402514057        2.6770539164       13.4986373204
 Zn         7.7079654951        8.0552254819       14.7289269350
 Cl         8.9408826620        9.2867996361       13.4963146126
 Zn         7.7086119733       18.8749537006        3.9149210966
 Cl         8.9433199571       20.1085571579        2.6859878014
 Zn        18.5217024034        8.0525982471        3.9083918466
 Cl        19.7552565957        9.2852854176        2.6773451108
 Zn        18.5292626261       18.8714085189       14.7272007984
 Cl        19.7616301358       20.1022423243       13.4934487573
 Zn         7.7079690649       14.7289266729        8.0552253430
 Cl         8.9408860055       13.4963134598        9.2867987834
 Zn         7.7086087257        3.9149227410       18.8749541803
 Cl         8.9433164009        2.6859898112       20.1085584549
 Zn        18.5292629063       14.7272010876       18.8714082114
 Cl        19.7616313050       13.4934497509       20.1022418239
 Zn        18.5217023097        3.9083923802        8.0525982744
 Cl        19.7552580757        2.6773469387        9.2852852064
 Zn        14.3884915817        8.0545562895        8.0545561289
 Cl        13.1584493470        9.2880100878        9.2880107249
 Zn        14.3916930217       18.8720780584       18.8720780566
 Cl        13.1577567991       20.1035238474       20.1035236789
 Zn         3.5690418704        8.0559217872       18.8731564982
 Cl         2.3352808837        9.2904375910       20.1020008018
 Zn         3.5690434399       18.8731562959        8.0559215332
 Cl         2.3352832138       20.1020014308        9.2904373495
 Zn        14.3893724139       14.7263825566        8.0539693882
 Cl        13.1575702259       13.4940481544        9.2867102417
 Zn        14.3890143823        3.9069844387       18.8700198912
 Cl        13.1539321217        2.6735043577       20.0983899476
 Zn         3.5723527427       14.7316327562       18.8748032030
 Cl         2.3404255040       13.4987777970       20.1069831307
 Zn         3.5678921749        3.9125703518        8.0557319828
 Cl         2.3357645360        2.6821911854        9.2904372896
 Zn         7.7075584670        8.0549441199        8.0549447969
 Cl         8.9418558893        9.2863654006        9.2863675867
 Zn         7.7150999831       18.8738967355       18.8738962012
 Cl         8.9495718698       20.1050589601       20.1050581224
 Zn        18.5224862019        8.0525999599       18.8732164130
 Cl        19.7538193324        9.2852578412       20.1065814370
 Zn        18.5224899564       18.8732160525        8.0526002165
 Cl        19.7538226611       20.1065818120        9.2852576152
 Zn        14.3893708901        8.0539700923       14.7263820375
 Cl        13.1575688606        9.2867099836       13.4940464273
 Zn        14.3890152590       18.8700196226        3.9069844068
 Cl        13.1539339473       20.0983911822        2.6735050488
 Zn         3.5678920654        8.0557323259        3.9125723117
 Cl         2.3357626262        9.2904377440        2.6821949433
 Zn         3.5723531838       18.8748032751       14.7316317130
 Cl         2.3404273829       20.1069825729       13.4987746984
 Zn         7.7101971514       14.7298928827       14.7298932310
 Cl         8.9427635143       13.4976935147       13.4976960826
 Zn         7.7013913336        3.9114285496        3.9114283033
 Cl         8.9358429796        2.6799400756        2.6799382018
 Zn        18.5275518726       14.7272500162        3.9105107736
 Cl        19.7622802022       13.4935168699        2.6819626073
 Zn        18.5275497789        3.9105110308       14.7272500518
 Cl        19.7622791979        2.6819629200       13.4935179021
 Zn         5.6348347746        5.9888816188       16.8067326753
 Zn        16.4563613574       16.8020905423       16.8020894997
 Zn        16.4524662254        5.9846867265        5.9846841064
 Zn         5.6348364316       16.8067320123        5.9888806355
 Zn         5.6329126582        5.9885203585        5.9885210426
 Zn        16.4540674340       16.8013490520        5.9836861945
 Zn         5.6374820609       16.8078107556       16.8078104254
 Zn        16.4540665241        5.9836871108       16.8013448589
  N         3.4523243232        5.9839344068       16.8022073773
  N        14.2709233820        5.9824439204        5.9824428484
  N        18.6453409550       16.8001029292       16.8001024046
  N         7.8237671085       16.8025972058        5.9857851725
  N        18.6399049023        5.9803067798        5.9803062838
  N         7.8237653810        5.9857864549       16.8025980414
  N         3.4523263714       16.8022070868        5.9839337181
  N        14.2755290145       16.7995971140       16.7995968845
  N        16.4534362725        3.7955513188        5.9818666393
  N        16.4606988641       14.6152509803       16.7986559802
  N        16.4603273205       18.9862534652       16.7995565941
  N        16.4579040608        8.1670077021        5.9841097454
  N         5.6388405440       18.9893813196        5.9863953023
  N         5.6391201751        8.1699864891       16.8018801563
  N         5.6399490014        3.7991081372       16.8040703461
  N         5.6386746429       14.6181982135        5.9837713559
  N         5.6399508592       16.8040697450        3.7991072709
  N         5.6386724633        5.9837717088       14.6181983223
  N        16.4603284470       16.7995580545       18.9862532677
  N        16.4579067461        5.9841126981        8.1670072422
  N         5.6388388801        5.9863969303       18.9893821319
  N         5.6391227865       16.8018800593        8.1699861988
  N        16.4534365308        5.9818649825        3.7955518841
  N        16.4606984356       16.7986559339       14.6152506751
  N         5.6352217022        3.7985783778        5.9846516824
  N         5.6415642156       14.6186707064       16.8032200738
  N        16.4551471372       18.9862761100        5.9799297795
  N        16.4567493332        8.1669061590       16.7995753412
  N         5.6432992509       18.9897777666       16.8034644008
  N         5.6375606713        8.1696349849        5.9843894167
  N        16.4581452967        3.7954455208       16.7978824566
  N        16.4607634696       14.6150720375        5.9846958956
  N         3.4551816927       16.8036446092       16.8036439775
  N        14.2731172271       16.7976227967        5.9803594467
  N        18.6423989992       16.8014055602        5.9814407510
  N         7.8263920385       16.8021141903       16.8021139209
  N        18.6423969880        5.9814412650       16.8014052884
  N         7.8213148829        5.9832902339        5.9832903303
  N         3.4498509566        5.9857190457        5.9857199982
  N        14.2731158530        5.9803603017       16.7976230363
  N        16.4551453764        5.9799292608       18.9862764717
  N        16.4567497832       16.7995776638        8.1669059287
  N        16.4581478620       16.7978838122        3.7954452982
  N        16.4607643770        5.9846989638       14.6150712939
  N         5.6352215729        5.9846522876        3.7985791076
  N         5.6415644418       16.8032195277       14.6186704643
  N         5.6432987828       16.8034655251       18.9897771067
  N         5.6375599205        5.9843886927        8.1696351417
  C        11.0502922019       15.7422536611       15.7422527741
  H        11.0495994088       14.9666967634       14.9666953528
  C        11.0459927329        4.9244400359        4.9244407438
  H        11.0460288163        4.1488937619        4.1488943125
  C         0.2279816941       15.7419178637        4.9260731513
  H         0.2282678582       14.9660625028        4.1508167207
  C         0.2279796777        4.9260723087       15.7419195447
  H         0.2282655381        4.1508161551       14.9660639248
  C        11.0486885778        7.0398391241       15.7400670255
  H        11.0487482550        7.8151460821       14.9642652827
  C        11.0485570688       17.8577208587        4.9241546589
  H        11.0484764144       18.6337019502        4.1490283210
  C         0.2249027290        7.0424245009        4.9259432831
  H         0.2249149286        7.8182328159        4.1506614913
  C         0.2303737275       17.8574123022       15.7408637206
  H         0.2304233389       18.6327907639       14.9651393765
  C        11.0486901347       15.7400661759        7.0398382111
  H        11.0487494721       14.9642644311        7.8151451928
  C        11.0485553988        4.9241562943       17.8577221661
  H        11.0484741072        4.1490304674       18.6337037926
  C         0.2303737360       15.7408633708       17.8574107845
  H         0.2304232905       14.9651384735       18.6327887074
  C         0.2249022545        4.9259406743        7.0424227598
  H         0.2249139644        4.1506572710        7.8182295050
  C        11.0465244267        7.0410230428        7.0410228269
  H        11.0464683807        7.8165772624        7.8165764248
  C        11.0520063982       17.8589980481       17.8589984249
  H        11.0527045468       18.6345537198       18.6345545193
  C         0.2269106825        7.0425083123       17.8584876808
  H         0.2267105657        7.8182592680       18.6338194068
  C         0.2269128781       17.8584862310        7.0425089144
  H         0.2267128057       18.6338182829        7.8182595516
  C        15.4035222563       11.3914846893       15.7373985241
  H        14.6284166750       11.3919055117       14.9613557620
  C        15.3965420997        0.5708614278        4.9215774099
  H        14.6217665868        0.5710517299        4.1452364061
  C         4.5817531982       11.3938088886        4.9234642318
  H         3.8063561074       11.3937373428        4.1477424671
  C         4.5871007993        0.5738123410       15.7419638297
  H         3.8117584361        0.5735450955       14.9661737801
  C        15.4064801130       11.3912895914        7.0483155510
  H        14.6313841476       11.3915467543        7.8243620873
  C        15.4008668417        0.5706759356       17.8565981496
  H        14.6258734816        0.5707323846       18.6327346597
  C         4.5831213261       11.3943014892       17.8619162892
  H         3.8077839440       11.3943562623       18.6376878105
  C         4.5805974669        0.5734953572        7.0457801664
  H         3.8052816200        0.5732559640        7.8215731844
  C         6.6990402026       11.3939540434       15.7438290336
  H         7.4742127265       11.3938305861       14.9678447089
  C         6.6971424566        0.5741150032        4.9284901699
  H         7.4728581790        0.5744489691        4.1530556073
  C        17.5207711123       11.3905572146        4.9281852412
  H        18.2949959995       11.3901636364        4.1512849081
  C        17.5151756109        0.5708216050       15.7371518424
  H        18.2897099836        0.5707868071       14.9605605042
  C         6.6977341469       11.3936562694        7.0415874362
  H         7.4728776996       11.3936898106        7.8176003913
  C         6.7033462145        0.5747006055       17.8593343272
  H         7.4787746049        0.5750997400       18.6350221713
  C        17.5188790657       11.3905013991       17.8563006607
  H        18.2937002974       11.3900031477       18.6326072445
  C        17.5103206508        0.5707605355        7.0416352406
  H        18.2847396967        0.5706191775        7.8183587572
  C        15.4035262023       15.7373954803       11.3914838721
  H        14.6284192283       14.9613540829       11.3919040239
  C        15.3965438853        4.9215733929        0.5708622572
  H        14.6217697449        4.1452310561        0.5710522412
  C         4.5871010284       15.7419643881        0.5738116121
  H         3.8117580717       14.9661749500        0.5735440803
  C         4.5817510964        4.9234644969       11.3938089702
  H         3.8063533951        4.1477433186       11.3937376345
  C         6.6990403645       15.7438273264       11.3939541310
  H         7.4742128648       14.9678429949       11.3938312045
  C         6.6971419407        4.9284917512        0.5741154272
  H         7.4728581552        4.1530576507        0.5744492377
  C        17.5151796350       15.7371553418        0.5708211484
  H        18.2897135181       14.9605634999        0.5707857601
  C        17.5207708687        4.9281858999       11.3905571590
  H        18.2949979684        4.1512877538       11.3901639534
  C        15.4064794384        7.0483160024       11.3912888256
  H        14.6313853096        7.8243643523       11.3915454505
  C        15.4008709348       17.8566016639        0.5706761136
  H        14.6258771299       18.6327377544        0.5707332033
  C         4.5805960268        7.0457808402        0.5734964737
  H         3.8052798327        7.8215735135        0.5732569681
  C         4.5831218382       17.8619149791       11.3943009740
  H         3.8077847736       18.6376867932       11.3943558406
  C         6.6977331961        7.0415865475       11.3936564198
  H         7.4728770639        7.8175992028       11.3936900716
  C         6.7033473516       17.8593341614        0.5746997553
  H         7.4787758547       18.6350218683        0.5750987816
  C        17.5103189950        7.0416346876        0.5707611046
  H        18.2847368817        7.8183593132        0.5706194109
  C        17.5188827958       17.8562977769       11.3905017990
  H        18.2937024900       18.6326059039       11.3900044899
 Xe        19.2875991829       10.5331377998       10.5331379280
