     409
 i =     150, E =    -5183.7532588581
  N         2.9903595759        5.2077270344       16.0277756555
  C         1.6721465194        5.4774889628       16.2946642447
  N        13.7991168497        5.2010621852        5.2010426907
  C        12.4819906855        5.4728929186        5.4728652476
  N        19.6838922309       17.5746446937       16.0183219850
  C        21.0016053868       17.3061408190       16.2900430506
  N         8.8532571147       17.5819115631        5.2132975056
  C        10.1709815638       17.3086348202        5.4788635265
  N        19.6615069614        5.2009503454        6.7570528213
  C        20.9792724502        5.4745703387        6.4906228872
  N         8.8532440519        5.2133180614       17.5819385583
  C        10.1709685228        5.4788982529       17.3086785544
  N         2.9866245577       17.5824253535        6.7649522225
  C         1.6696088186       17.3101829587        6.4939729197
  N        13.8204683530       17.5759063489       17.5759142696
  C        12.5022906931       17.3073708528       17.3073733624
  N        15.9527751003        3.0436684830        5.1988983548
  C        16.2239116531        1.7261718722        5.4689150007
  N        15.9705425776       13.8664081880       16.0185588545
  C        16.2390517835       12.5486140237       16.2885269527
  N        15.9729011631       19.7282572616       17.5733568675
  C        16.2399232094       21.0461449294       17.3018807081
  N        15.9560602207        8.9109212231        6.7572612934
  C        16.2283775645       10.2281509483        6.4880898118
  N         6.6992653325       19.7405619071        5.2147599499
  C         6.4271760888       21.0580321074        5.4842389126
  N         6.6993921851        8.9180666428       16.0252985044
  C         6.4303538984       10.2358603027       16.2947582758
  N         6.7029274875        3.0585095702       17.5853547310
  C         6.4366961709        1.7401227175       17.3139793795
  N         6.6950447483       13.8739459217        6.7677236876
  C         6.4219213446       12.5566329524        6.5001442256
  N         5.1480596492       16.0283437956        3.0557685681
  C         5.4212852917       16.2973779464        1.7384832932
  N         5.1400506702        5.2113220825       13.8753254968
  C         5.4063852851        5.4837354265       12.5574729196
  N        17.5281418761       16.0168825855       19.7298193044
  C        17.2556805487       16.2856659501       21.0473174655
  N        17.5096052829        5.1995038574        8.9090385440
  C        17.2432421175        5.4710344369       10.2269250812
  N         5.1412500895        6.7687097594       19.7388917859
  C         5.4101563428        6.4992979380       21.0568993946
  N         5.1427800856       17.5811772177        8.9199579317
  C         5.4143680344       17.3108898640       10.2371927904
  N        17.5077470282        6.7555514840        3.0451196469
  C        17.2393154019        6.4854719469        1.7272587451
  N        17.5274204520       17.5737494926       13.8647009162
  C        17.2554464681       17.3041633111       12.5474033117
  N         5.1341619577        3.0555504214        6.7680748801
  C         5.4063153951        1.7379117167        6.4992041016
  N         5.1525659373       13.8757162066       17.5831639813
  C         5.4190195722       12.5577444398       17.3116624574
  N        17.5149820080       19.7292566876        6.7550309177
  C        17.2429615209       21.0465607980        6.4852857963
  N        17.5183912324        8.9089477556       17.5757679578
  C        17.2510837371       10.2268456485       17.3049214474
  N         5.1558546053       19.7394082580       16.0276496411
  C         5.4250734276       21.0573945495       16.2970848256
  N         5.1334231050        8.9196656390        5.2143156011
  C         5.4032073490       10.2370480172        5.4852809801
  N        17.5205003458        3.0463199572       16.0159606252
  C        17.2518104929        1.7282664877       16.2854065641
  N        17.5194479022       13.8647054885        5.2017727855
  C        17.2480175148       12.5473822578        5.4718600186
  N         3.0003850309       16.0284271403       17.5841285503
  C         1.6826328356       16.2947571793       17.3107080358
  N        13.8095686558       16.0170726633        6.7564459910
  C        12.4919343307       16.2883581327        6.4885078419
  N        19.6742255329       16.0192441778        5.2024910115
  C        20.9913575939       16.2904015616        5.4745322814
  N         8.8613554193       16.0255666192       16.0255735500
  C        10.1794232684       16.2942923821       16.2942947035
  N        19.6705911546        6.7573985044       17.5761577388
  C        20.9888562657        6.4901482502       17.3067876170
  N         8.8467218189        6.7645692658        6.7645444216
  C        10.1637491071        6.4927896705        6.4927566342
  N         2.9781117963        6.7669539300        5.2109903795
  C         1.6603716835        6.4954381436        5.4794112005
  N        13.8095568594        6.7564657752       16.0171086341
  C        12.4919226577        6.4885399739       16.2884045508
  N        15.9602799354        5.1978923247       19.7272689881
  C        16.2276747626        5.4685580160       21.0453185949
  N        15.9629261148       16.0195694065        8.9108990533
  C        16.2351723739       16.2888810577       10.2281408871
  N        15.9635568347       17.5711299885        3.0442315197
  C        16.2354012124       17.3010472399        1.7269305775
  N        15.9638896295        6.7582993974       13.8661611092
  C        16.2325467042        6.4884177668       12.5484725010
  N         6.6893505183        5.2120750082        3.0569241318
  C         6.4223333316        5.4833035707        1.7389541556
  N         6.7070534595       16.0262897205       13.8737549942
  C         6.4342991470       16.2950170870       12.5564411743
  N         6.7116293880       17.5840910033       19.7411667862
  C         6.4408227753       17.3134422245       21.0587439952
  N         6.6902195083        6.7694302965        8.9187952470
  C         6.4193661349        6.5011449983       10.2363595315
  N        19.6706098373       17.5761712621        6.7574040793
  C        20.9888723492       17.3068081140        6.4901443936
  N         8.8645073003       17.5818187440       17.5818276943
  C        10.1815903500       17.3103511319       17.3103547208
  N         2.9781136657        5.2109825830        6.7669559626
  C         1.6603733554        5.4794022435        6.4954435664
  N        13.8087918527        5.1999126032       17.5727150996
  C        12.4913922518        5.4726139703       17.3045266386
  N         3.0003847584       17.5841274525       16.0284251233
  C         1.6826327160       17.3107080491       16.2947556479
  N        13.8088085519       17.5726754282        5.1998938994
  C        12.4914070782       17.3044791811        5.4725816588
  N        19.6742108161        5.2024854488       16.0192329155
  C        20.9913434797        5.4745352187       16.2903818131
  N         8.8424040629        5.2088137704        5.2087942615
  C        10.1609186119        5.4768039174        5.4767738384
  N         6.7116247079       19.7411548639       17.5840969703
  C         6.4408154586       21.0587314431       17.3134462948
  N         6.6902345120        8.9187995628        6.7694213189
  C         6.4193844170       10.2363638563        6.5011370832
  N         6.6893311362        3.0569200067        5.2120639811
  C         6.4223123569        1.7389498149        5.4832913643
  N         6.7070590769       13.8737510876       16.0262989905
  C         6.4343069312       12.5564372818       16.2950278089
  N        15.9635558761        3.0442130636       17.5711433627
  C        16.2354112313        1.7269135793       17.3010646640
  N        15.9638771142       13.8661573080        6.7582918111
  C        16.2324992872       12.5484684217        6.4883779006
  N        15.9603039492       19.7272541889        5.1978949731
  C        16.2276937713       21.0453057176        5.4685597204
  N        15.9629095854        8.9108906384       16.0195704538
  C        16.2351741745       10.2281317919       16.2888669479
  N        17.5149538828        6.7550322301       19.7292623668
  C        17.2429403076        6.4852865684       21.0465680759
  N        17.5184121554       17.5757666425        8.9089632035
  C        17.2510831395       17.3049346963       10.2268593686
  N         5.1341829104        6.7680889170        3.0555548149
  C         5.4063376332        6.4992180244        1.7379158854
  N         5.1525594915       17.5831532212       13.8757202009
  C         5.4190115080       17.3116507807       12.5577486480
  N        17.5204993951       16.0159504854        3.0463341658
  C        17.2518004916       16.2853899666        1.7282806503
  N        17.5194601583        5.2017790961       13.8647105106
  C        17.2480642893        5.4718994666       12.5473875836
  N         5.1558566863       16.0276463471       19.7394245701
  C         5.4250787379       16.2970820961       21.0574101874
  N         5.1334102635        5.2143214626        8.9196579458
  C         5.4031906805        5.4852874832       10.2370411905
  N        17.5281451712       19.7298058142       16.0168860075
  C        17.2556947287       21.0473037221       16.2856814241
  N        17.5095844332        8.9090321469        5.1994979744
  C        17.2431871488       10.2269195911        5.4709907666
  N         5.1480433672        3.0557542468       16.0283431831
  C         5.4212711619        1.7384687592       16.2973781020
  N         5.1400761283       13.8753308182        5.2113183387
  C         5.4064092142       12.5574782217        5.4837303081
  N        17.5077631327        3.0451112432        6.7555453228
  C        17.2393266006        1.7272505087        6.4854722288
  N        17.5274178785       13.8646877505       17.5737575332
  C        17.2554605564       12.5473907711       17.3041485828
  N         5.1412319565       19.7388880498        6.7686990574
  C         5.4101343679       21.0568956317        6.4992848400
  N         5.1427873512        8.9199541071       17.5811850148
  C         5.4143787210       10.2371886937       17.3109011129
  N        19.6615027559        6.7570401803        5.2009660016
  C        20.9792699489        6.4906121760        5.4745833870
  N         8.8538285418        6.7660134707       16.0234603839
  C        10.1713839213        6.4934445036       16.2913107039
  N         2.9866131479        6.7649525515       17.5824126765
  C         1.6695965944        6.4939802067       17.3101604131
  N        13.8026502275        6.7574781015        6.7574557432
  C        12.4845355423        6.4889772238        6.4889474192
  N         2.9903703419       16.0277875298        5.2077287051
  C         1.6721579217       16.2946855497        5.4774824047
  N        13.8173031829       16.0201268824       16.0201317908
  C        12.5001536103       16.2914056305       16.2914064563
  N        19.6838924361       16.0183219643       17.5746443304
  C        21.0016055912       16.2900439889       17.3061399472
  N         8.8538391076       16.0234331364        6.7659927725
  C        10.1713948050       16.2912671308        6.4934097196
  N         6.7029455737       17.5853528995        3.0585201167
  C         6.4367115930       17.3139775602        1.7401343018
  N         6.6950177311        6.7677298022       13.8739444437
  C         6.4218961094        6.5001506423       12.5566302547
  N         6.6992808889        5.2147682141       19.7405659982
  C         6.4271965220        5.4842504174       21.0580359868
  N         6.6993861314       16.0252905089        8.9180696441
  C         6.4303437894       16.2947470877       10.2358638504
  N        15.9728960475       17.5733531881       19.7282735322
  C        16.2399082369       17.3018648505       21.0461607575
  N        15.9560800867        6.7572691122        8.9109240165
  C        16.2284328115        6.4881339256       10.2281543230
  N        15.9527629762        5.1989036484        3.0436801794
  C        16.2239023708        5.4689131403        1.7261831845
  N        15.9705457155       16.0185514956       13.8664155805
  C        16.2390375866       16.2885419057       12.5486224204
 Zn        14.6749613569       14.7259592561       14.7259647996
 Cl        13.4430621819       13.4936431905       13.4936438009
 Zn        14.6607743945        3.9058264749        3.9058308243
 Cl        13.4240288287        2.6758055287        2.6758084954
 Zn         3.8515816711       14.7362062881        3.9131332375
 Cl         2.6197218533       13.5033295193        2.6811188720
 Zn         3.8515699468        3.9131219559       14.7362021023
 Cl         2.6197091190        2.6811129133       13.5033213177
 Zn         7.9929512590        8.0576972497       14.7298288151
 Cl         9.2220436123        9.2913779365       13.4959543505
 Zn         7.9948123383       18.8781089030        3.9251659717
 Cl         9.2282532267       20.1098046035        2.6928131267
 Zn        18.7997105227        8.0491290593        3.9049364132
 Cl        20.0329968280        9.2810014586        2.6730480761
 Zn        18.8214218491       18.8682968624       14.7240326538
 Cl        20.0535022818       20.0981166087       13.4892727027
 Zn         7.9929640615       14.7298283943        8.0577042884
 Cl         9.2220539385       13.4959490922        9.2913840908
 Zn         7.9948001418        3.9251552136       18.8781059054
 Cl         9.2282497123        2.6928131894       20.1098021279
 Zn        18.8214194733       14.7240332808       18.8682991570
 Cl        20.0535075554       13.4892769074       20.0981137079
 Zn        18.7997203716        3.9049226805        8.0491400010
 Cl        20.0330055659        2.6730383059        9.2810171174
 Zn        14.6641571991        8.0516171612        8.0516214519
 Cl        13.4320275303        9.2839582894        9.2839629038
 Zn        14.6815941566       18.8692350852       18.8692403054
 Cl        13.4498761418       20.1017939078       20.1017876278
 Zn         3.8475367883        8.0590529757       18.8745318978
 Cl         2.6168521980        9.2949388462       20.1048515434
 Zn         3.8475359980       18.8745368929        8.0590628296
 Cl         2.6168496155       20.1048597775        9.2949454305
 Zn        14.6696705786       14.7250934678        8.0520685617
 Cl        13.4377358334       13.4926811740        9.2842894654
 Zn        14.6688587870        3.9035815459       18.8649692541
 Cl        13.4351470553        2.6710124930       20.0952684402
 Zn         3.8610101033       14.7360317302       18.8771985518
 Cl         2.6295510609       13.5027211683       20.1095705949
 Zn         3.8421307965        3.9192615407        8.0592415766
 Cl         2.6112121533        2.6886983030        9.2951757373
 Zn         7.9881351746        8.0578200404        8.0578194989
 Cl         9.2176128217        9.2914930465        9.2914948433
 Zn         8.0040288421       18.8762849935       18.8762907489
 Cl         9.2411716876       20.1062408629       20.1062372538
 Zn        18.8097955663        8.0490444579       18.8713204785
 Cl        20.0414866517        9.2812547317       20.1041060941
 Zn        18.8098147145       18.8713244763        8.0490560729
 Cl        20.0414948934       20.1041203800        9.2812635282
 Zn        14.6696627158        8.0520621879       14.7250943557
 Cl        13.4377342021        9.2842870899       13.4926783530
 Zn        14.6688681851       18.8649539267        3.9035933525
 Cl        13.4351577298       20.0952563129        2.6710254933
 Zn         3.8421343215        8.0592406213        3.9192732975
 Cl         2.6112167437        9.2951716941        2.6887058627
 Zn         3.8610078915       18.8771941208       14.7360273973
 Cl         2.6295548577       20.1095719026       13.5027168023
 Zn         8.0000859248       14.7315386309       14.7315425667
 Cl         9.2306234784       13.4984973897       13.4984999103
 Zn         7.9779237367        3.9166182553        3.9166272939
 Cl         9.2109755700        2.6843144465        2.6843145968
 Zn        18.8154783204       14.7242749641        3.9086412295
 Cl        20.0474361927       13.4899607331        2.6784367846
 Zn        18.8154760092        3.9086252712       14.7242720277
 Cl        20.0474443918        2.6784319443       13.4899546891
 Zn         5.9183437371        5.9933790357       16.8105338916
 Zn        16.7560721261       16.7948545770       16.7948816966
 Zn        16.7262993359        5.9761593882        5.9761903503
 Zn         5.9183563493       16.8105314087        5.9933833321
 Zn         5.9073215195        5.9934431930        5.9934390079
 Zn        16.7374938780       16.7942543900        5.9765836417
 Zn         5.9373841601       16.8113129870       16.8113227865
 Zn        16.7374324521        5.9765250091       16.7942693081
  N         3.7349563179        5.9865812335       16.8065288417
  N        14.5470167122        5.9784567458        5.9784454068
  N        18.9376364304       16.7956921978       16.7956924506
  N         8.1068089579       16.8042986926        5.9914489115
  N        18.9149357256        5.9770256413        5.9770417659
  N         8.1067973267        5.9914596309       16.8043150010
  N         3.7349674307       16.8065341700        5.9865885659
  N        14.5656679555       16.7973314964       16.7973415856
  N        16.7295009621        3.7909456674        5.9773649016
  N        16.7498072663       14.6119706148       16.7961153238
  N        16.7519090349       18.9823721353       16.7958703512
  N        16.7310900386        8.1632757062        5.9774988287
  N         5.9209854948       18.9933363513        5.9917253769
  N         5.9204863693        8.1727922601       16.8035029600
  N         5.9235120862        3.8037592519       16.8075839898
  N         5.9194594470       14.6214000119        5.9882381947
  N         5.9235310795       16.8075833644        3.8037711893
  N         5.9194328533        5.9882415298       14.6213967966
  N        16.7519116543       16.7958747162       18.9823873293
  N        16.7310843962        5.9774777674        8.1632818114
  N         5.9209995909        5.9917322278       18.9933400952
  N         5.9204811590       16.8034965448        8.1727958332
  N        16.7294872529        5.9773716186        3.7909565821
  N        16.7498216026       16.7960931934       14.6119816818
  N         5.9104235407        3.8029982386        5.9893316052
  N         5.9315514532       14.6215083221       16.8056258076
  N        16.7387872760       18.9816267472        5.9762403894
  N        16.7392743771        8.1632708726       16.7981854280
  N         5.9340906439       18.9939212388       16.8062885901
  N         5.9121282410        8.1729445587        5.9911709905
  N        16.7411358268        3.7917382284       16.7936478264
  N        16.7420722935       14.6118379358        5.9798109548
  N         3.7471616841       16.8082199249       16.8082195062
  N        14.5555631553       16.7940239651        5.9769494148
  N        18.9257669053       16.7973823895        5.9786746252
  N         8.1167257383       16.8044453535       16.8044573237
  N        18.9257480382        5.9786598651       16.7973775989
  N         8.0978313893        5.9876111833        5.9875958228
  N         3.7244869919        5.9898224887        5.9898266066
  N        14.5555464683        5.9769548296       16.7940511603
  N        16.7387569387        5.9762390873       18.9816368843
  N        16.7393090114       16.7981711579        8.1632852207
  N        16.7411475351       16.7936447846        3.7917562292
  N        16.7420533381        5.9797871319       14.6118434895
  N         5.9104424920        5.9893430192        3.8030016641
  N         5.9315460535       16.8056162450       14.6215126798
  N         5.9340932266       16.8062828850       18.9939351828
  N         5.9121162780        5.9911777836        8.1729386157
  C        11.3384791562       15.7424235995       15.7424236050
  H        11.3363036773       14.9668550580       14.9668572720
  C        11.3196279862        4.9245130039        4.9244765448
  H        11.3169101057        4.1489724745        4.1489237569
  C         0.5134167417       15.7417892163        4.9259644417
  H         0.5162844434       14.9660371067        4.1505985113
  C         0.5134045173        4.9259733441       15.7417655053
  H         0.5162774168        4.1506075980       14.9660127218
  C        11.3320766378        7.0409519285       15.7388768360
  H        11.3329269829        7.8160577937       14.9628688802
  C        11.3306995904       17.8572769637        4.9254650727
  H        11.3299115531       18.6333259458        4.1503727791
  C         0.4998177780        7.0437858968        4.9271205892
  H         0.4999381021        7.8196582841        4.1518906727
  C         0.5221900798       17.8584521785       15.7417537342
  H         0.5223556598       18.6339600047       14.9661463660
  C        11.3320870444       15.7388180969        7.0409040586
  H        11.3329392990       14.9627878439        7.8159873901
  C        11.3306841147        4.9255126466       17.8573373068
  H        11.3298925796        4.1504435979       18.6334095608
  C         0.5221901185       15.7417556745       17.8584517265
  H         0.5223550113       14.9661486827       18.6339595832
  C         0.4998220287        4.9271075440        7.0437929020
  H         0.4999455447        4.1518756398        7.8196637713
  C        11.3258600630        7.0412666968        7.0412252251
  H        11.3288340441        7.8168395136        7.8167839068
  C        11.3433436340       17.8592567750       17.8592595313
  H        11.3453378127       18.6348071714       18.6348129621
  C         0.5075691097        7.0428298020       17.8585119916
  H         0.5050067002        7.8185473075       18.6339059244
  C         0.5075834102       17.8585397118        7.0428208612
  H         0.5050150967       18.6339359535        7.8185365886
  C        15.6866824838       11.3891782044       15.7381956043
  H        14.9109099166       11.3905127803       14.9628447709
  C        15.6754911732        0.5649500010        4.9182599462
  H        14.8999375938        0.5637312894        4.1427165243
  C         4.8540072634       11.3976712805        4.9343365653
  H         4.0789487596       11.3980724701        4.1582944033
  C         4.8734633176        0.5771342195       15.7463186476
  H         4.0982669188        0.5757795978       14.9703755342
  C        15.6804897145       11.3891750694        7.0392944406
  H        14.9051313237       11.3906328172        7.8150637014
  C        15.6869486483        0.5656755497       17.8515155497
  H        14.9110217841        0.5642972434       18.6267156676
  C         4.8663120271       11.3983857498       17.8617681114
  H         4.0912777862       11.3997353339       18.6378392269
  C         4.8578316811        0.5765860622        7.0495638155
  H         4.0821185893        0.5751807638        7.8249398400
  C         6.9822981096       11.3953285187       15.7439139187
  H         7.7576238420       11.3938917038       14.9680918667
  C         6.9756279691        0.5794084351        4.9338587668
  H         7.7516610564        0.5809773867        4.1587514664
  C        17.7958128981       11.3862350099        4.9206432352
  H        18.5705094193       11.3847476353        4.1442177589
  C        17.8038505120        0.5686050087       15.7348935233
  H        18.5790962417        0.5699637175       14.9590309330
  C         6.9704566721       11.3961417476        7.0519377124
  H         7.7461237215       11.3954490077        7.8274127009
  C         6.9891578176        0.5802844903       17.8638590692
  H         7.7645182943        0.5816023435       18.6395736683
  C        17.8039447661       11.3862838550       17.8547788489
  H        18.5795280833       11.3850514450       18.6303182877
  C        17.7910096268        0.5677040259        7.0363497614
  H        18.5658207772        0.5690971303        7.8126814247
  C        15.6866709992       15.7382134162       11.3891841600
  H        14.9109109970       14.9628501498       11.3905110197
  C        15.6754748399        4.9182600103        0.5649647161
  H        14.8999105293        4.1427272220        0.5637523027
  C         4.8734728235       15.7463171660        0.5771524120
  H         4.0982780746       14.9703725885        0.5758051918
  C         4.8539844460        4.9343452368       11.3976631142
  H         4.0789181430        4.1583105986       11.3980607231
  C         6.9822862453       15.7439006842       11.3953319826
  H         7.7576064619       14.9680733068       11.3938965680
  C         6.9756535388        4.9338750319        0.5794127772
  H         7.7516984692        4.1587793200        0.5809820836
  C        17.8038339782       15.7348741508        0.5686186387
  H        18.5790811062       14.9590135868        0.5699808681
  C        17.7958788549        4.9206993646       11.3862405447
  H        18.5705744366        4.1442727071       11.3847497167
  C        15.6805568672        7.0393518366       11.3891774065
  H        14.9051980977        7.8151205569       11.3906306533
  C        15.6869317777       17.8514947609        0.5656940377
  H        14.9110063100       18.6266965337        0.5643198524
  C         4.8578605767        7.0495830980        0.5765899568
  H         4.0821611149        7.8249722322        0.5751826123
  C         4.8662994591       17.8617538070       11.3983909460
  H         4.0912593662       18.6378193941       11.3997460772
  C         6.9704303990        7.0519480884       11.3961401924
  H         7.7460888801        7.8274313436       11.3954515716
  C         6.9891712410       17.8638549439        0.5802944543
  H         7.7645351529       18.6395663155        0.5816086777
  C        17.7909893152        7.0363539135        0.5677101434
  H        18.5657875139        7.8126984966        0.5691032808
  C        17.8039349034       17.8547962960       11.3862995568
  H        18.5795307564       18.6303234220       11.3850678387
 Xe         3.4831670756       10.5231654794       10.5231657355
