     409
 i =     150, E =    -5183.7431199382
  N         2.8826924197        5.2029503998       16.0023597763
  C         1.5644994252        5.4715222558       16.2700359658
  N        13.7147591297        5.1493290221        5.1493241514
  C        12.3921985753        5.4073072859        5.4073135826
  N        19.5682961242       17.5504039904       15.9954907967
  C        20.8857973339       17.2848405872       16.2689782421
  N         8.7517850283       17.6345768167        5.1304811681
  C        10.0688114105       17.3568468412        5.4016523881
  N        19.5636265631        5.1995836448        6.7554125245
  C        20.8809808524        5.4718871285        6.4878006728
  N         8.7517837391        5.1304836805       17.6345912150
  C        10.0688114264        5.4016424910       17.3568510783
  N         2.8791398463       17.5567984961        6.7596371005
  C         1.5621987980       17.2851670397        6.4883045568
  N        13.7196163290       17.5917413273       17.5917474070
  C        12.3972161881       17.3337764777       17.3337692569
  N        15.8878227917        3.0266280626        5.1814489331
  C        16.1542139210        1.7107748819        5.4586952066
  N        15.8324861828       13.8538355633       16.0104888523
  C        16.1024528592       12.5345150043       16.2758231364
  N        15.8863181735       19.7175178674       17.5660562251
  C        16.1539570820       21.0336599214       17.2916046040
  N        15.8298461823        8.8912730579        6.7304524665
  C        16.1013573069       10.2109269307        6.4656630023
  N         6.5533557945       19.7272620857        5.1812595390
  C         6.2854982586       21.0420885381        5.4591749822
  N         6.6104105921        8.8985070779       16.0237614987
  C         6.3415281212       10.2187012954       16.2867754616
  N         6.5582381753        3.0347851393       17.5796692357
  C         6.2925686571        1.7195427001       17.3015457825
  N         6.6222004158       13.8603580288        6.7538400770
  C         6.3493867453       12.5414171063        6.4868981718
  N         5.0246101658       16.0025148941        3.0393189486
  C         5.2907447303       16.2717870222        1.7208544758
  N         5.0512778491        5.2121086389       13.8607020266
  C         5.3228660333        5.4812549897       12.5427907671
  N        17.4251789342       15.9945358019       19.7138628382
  C        17.1594371940       16.2653950210       21.0325482093
  N        17.4015411657        5.1905501970        8.8956633575
  C        17.1274694329        5.4597754825       10.2121076590
  N         5.0190486822        6.7592329402       19.7216874999
  C         5.2841127286        6.4895831589       21.0401225284
  N         5.0391680820       17.5631243500        8.9065417449
  C         5.3142090208       17.2913154767       10.2228198268
  N        17.4256972704        6.7544184790        3.0313028745
  C        17.1589230983        6.4856672243        1.7126300547
  N        17.4043835568       17.5505259132       13.8491715068
  C        17.1285987007       17.2817340980       12.5326964065
  N         5.0168349577        3.0382704485        6.7583692061
  C         5.2826600532        1.7197580537        6.4894109715
  N         5.0462245586       13.8616081717       17.5570247627
  C         5.3178492212       12.5440753916       17.2880172737
  N        17.4249082816       19.7126519668        6.7587376256
  C        17.1589625300       21.0314183939        6.4881940715
  N        17.4006647174        8.8963336995       17.5478925508
  C        17.1260217871       10.2127864142       17.2798585729
  N         5.0264140106       19.7225871429       16.0029897165
  C         5.2920401678       21.0410456455       16.2722995226
  N         5.0443150692        8.9043175251        5.2029072544
  C         5.3195175670       10.2205625740        5.4763565730
  N        17.4253021347        3.0320310509       15.9979299783
  C        17.1589502871        1.7135513353       16.2675604666
  N        17.4054683322       13.8489239488        5.1891563625
  C        17.1301790977       12.5323559607        5.4585095838
  N         2.8831520287       16.0062359934       17.5612330528
  C         1.5655739828       16.2742860388       17.2901541384
  N        13.6924157733       16.0329970846        6.7070085380
  C        12.3795295430       16.3179460593        6.4267254905
  N        19.5675180528       15.9950835823        5.1976939571
  C        20.8844682291       16.2663007676        5.4688326630
  N         8.7428036846       16.0726655848       16.0726772098
  C        10.0631826750       16.3359994948       16.3359966892
  N        19.5642784444        6.7555815087       17.5478577230
  C        20.8822300203        6.4861219378       17.2807800948
  N         8.7390132847        6.6704615863        6.6704620208
  C        10.0591775912        6.4063736803        6.4063843270
  N         2.8786517029        6.7614320969        5.2053154542
  C         1.5611213797        6.4907520019        5.4746754559
  N        13.6924142688        6.7070162368       16.0330085131
  C        12.3795290062        6.4267209677       16.3179472462
  N        15.8869146803        5.1864218619       19.7167902548
  C        16.1541435829        5.4613808956       21.0327400090
  N        15.8291719675       16.0079642120        8.8922255054
  C        16.0999698367       16.2739479327       10.2117303384
  N        15.8854951731       17.5689591076        3.0283796595
  C        16.1531774684       17.2935334611        1.7121929207
  N        15.8333267805        6.7291879480       13.8532427263
  C        16.1039557931        6.4643930909       12.5338895512
  N         6.5489818046        5.1790579981        3.0329305362
  C         6.2832174435        5.4584312360        1.7181076505
  N         6.6174946245       16.0168327300       13.8621069023
  C         6.3450204865       16.2831358113       12.5431684623
  N         6.5624037335       17.5785468411       19.7277794203
  C         6.2947529277       17.3014042976       21.0430080845
  N         6.6169390999        6.7420094107        8.8950724677
  C         6.3468926714        6.4810014704       10.2155943739
  N        19.5642806008       17.5478522633        6.7555707754
  C        20.8822312542       17.2807712638        6.4861118510
  N         8.7567521741       17.6269208324       17.6269253323
  C        10.0734200097       17.3518476103       17.3518402558
  N         2.8786553043        5.2053326610        6.7614199661
  C         1.5611223190        5.4746886743        6.4907406482
  N        13.7155453501        5.1551387967       17.5933128757
  C        12.3931203330        5.4143532085       17.3361152732
  N         2.8831539731       17.5612252270       16.0062472697
  C         1.5655754936       17.2901468143       16.2742958173
  N        13.7155451929       17.5933017559        5.1551316207
  C        12.3931208937       17.3361146244        5.4143588693
  N        19.5675165896        5.1977071654       15.9950872689
  C        20.8844664226        5.4688431067       16.2663079877
  N         8.7500270844        5.1167969716        5.1167844155
  C        10.0675149045        5.3906810300        5.3906840621
  N         6.5624060290       19.7277776392       17.5785562992
  C         6.2947627677       21.0430077875       17.3014067650
  N         6.6169414285        8.8950722274        6.7419829445
  C         6.3468822796       10.2155944241        6.4809922833
  N         6.5489781602        3.0329315519        5.1790407317
  C         6.2832225511        1.7181087514        5.4584240472
  N         6.6174920946       13.8621052862       16.0168414822
  C         6.3450139446       12.5431691223       16.2831446360
  N        15.8854903186        3.0283776710       17.5689624933
  C        16.1531675601        1.7121910235       17.2935277497
  N        15.8333279898       13.8532412800        6.7291798730
  C        16.1039601269       12.5338891967        6.4643880869
  N        15.8869151143       19.7167857311        5.1864148910
  C        16.1541381321       21.0327356713        5.4613803624
  N        15.8291696406        8.8922263875       16.0079741521
  C        16.0999749408       10.2117309323       16.2739505440
  N        17.4249077883        6.7587440509       19.7126575921
  C        17.1589678695        6.4881942022       21.0314233297
  N        17.4006654940       17.5478850198        8.8963329798
  C        17.1260154733       17.2798570711       10.2127862134
  N         5.0168354291        6.7583820484        3.0382675917
  C         5.2826523964        6.4894157497        1.7197574339
  N         5.0462278648       17.5570172163       13.8616060890
  C         5.3178577960       17.2880084207       12.5440748903
  N        17.4253041048       15.9979242788        3.0320293639
  C        17.1589589482       16.2675640360        1.7135510551
  N        17.4054716895        5.1891689810       13.8489255682
  C        17.1301772857        5.4585175596       12.5323575842
  N         5.0264134770       16.0029806163       19.7225885381
  C         5.2920318995       16.2722968273       21.0410468091
  N         5.0443229559        5.2029192391        8.9043148832
  C         5.3195323912        5.4763571647       10.2205637494
  N        17.4251812725       19.7138599939       15.9945382388
  C        17.1594307750       21.0325459766       16.2653900648
  N        17.4015395673        8.8956644340        5.1905424997
  C        17.1274725532       10.2121080811        5.4597715395
  N         5.0246070933        3.0393201027       16.0025269919
  C         5.2907522242        1.7208558931       16.2717922207
  N         5.0512789233       13.8606980731        5.2121005770
  C         5.3228536447       12.5427867843        5.4812549747
  N        17.4256981682        3.0313000631        6.7544162976
  C        17.1589176123        1.7126275714        6.4856685546
  N        17.4043807626       13.8491698685       17.5505325836
  C        17.1286027398       12.5326946458       17.2817348366
  N         5.0190496835       19.7216843547        6.7592279724
  C         5.2841209930       21.0401206039        6.4895830671
  N         5.0391623969        8.9065441355       17.5631368390
  C         5.3141989369       10.2228223337       17.2913273358
  N        19.5636231510        6.7554178074        5.1995819653
  C        20.8809787724        6.4878083063        5.4718812950
  N         8.7392821483        6.6794681721       16.0748631441
  C        10.0596061373        6.4142535752       16.3378156625
  N         2.8791387262        6.7596429080       17.5568085438
  C         1.5621975342        6.4883113178       17.2851790773
  N        13.6916129637        6.7052650063        6.7052622265
  C        12.3787863404        6.4225176699        6.4225265219
  N         2.8826956083       16.0023485024        5.2029463077
  C         1.5645017936       16.2700228198        5.4715157638
  N        13.6953367117       16.0353476794       16.0353549759
  C        12.3827342542       16.3184279364       16.3184223919
  N        19.5682937134       15.9954890314       17.5504037870
  C        20.8857954032       16.2689747142       17.2848423695
  N         8.7392813900       16.0748451216        6.6794618514
  C        10.0596062503       16.3378092845        6.4142610915
  N         6.5582402209       17.5796555060        3.0347807847
  C         6.2925606264       17.3015409943        1.7195400049
  N         6.6222005613        6.7538506603       13.8603665200
  C         6.3493968439        6.4868988951       12.5414231668
  N         6.5533554591        5.1812685961       19.7272675337
  C         6.2854912027        5.4591773536       21.0420928948
  N         6.6104112823       16.0237428464        8.8985026075
  C         6.3415358831       16.2867601453       10.2186977126
  N        15.8863170305       17.5660541522       19.7175224053
  C        16.1539647142       17.2916101645       21.0336642277
  N        15.8298455232        6.7304588161        8.8912718148
  C        16.1013526250        6.4656655232       10.2109256675
  N        15.8878233827        5.1814512453        3.0266288822
  C        16.1542194614        5.4586931793        1.7107771140
  N        15.8324876330       16.0104825694       13.8538381655
  C        16.1024488091       16.2758228029       12.5345166778
 Zn        14.5366066512       14.7300531350       14.7300615003
 Cl        13.3079151611       13.4961464514       13.4961323093
 Zn        14.6047996517        3.8716851189        3.8716779331
 Cl        13.3950883523        2.6274800036        2.6274863882
 Zn         3.7449901944       14.7107959688        3.9140573493
 Cl         2.5216939152       13.4547663560        2.6967436051
 Zn         3.7449851243        3.9140580002       14.7108013332
 Cl         2.5216941878        2.6967503683       13.4547574647
 Zn         7.9163484402        7.9939133420       14.7840147755
 Cl         9.4315117698        9.1299161976       13.8007347965
 Zn         7.8451810757       18.9024928264        3.8576484117
 Cl         9.0060792832       20.1708220029        2.5947155410
 Zn        18.7079769921        8.0494246965        3.9030343779
 Cl        19.9467641933        9.2875567167        2.6831978120
 Zn        18.7083244127       18.8375333060       14.7034284486
 Cl        19.9444636608       20.0606399921       13.4643015088
 Zn         7.9163386200       14.7839946611        7.9938986724
 Cl         9.4315009558       13.8007320206        9.1299128680
 Zn         7.8451786258        3.8576588468       18.9025208486
 Cl         9.0060885549        2.5947004971       20.1708138140
 Zn        18.7083221688       14.7034292615       18.8375364778
 Cl        19.9444630342       13.4642960876       20.0606353086
 Zn        18.7079789801        3.9030375307        8.0494209269
 Cl        19.9467552913        2.6831997078        9.2875627883
 Zn        14.5343385849        8.0078718526        8.0078672527
 Cl        13.3055516709        9.2424510058        9.2424506715
 Zn        14.6029545951       18.8745714145       18.8745754964
 Cl        13.3897988739       20.1167884044       20.1167765120
 Zn         3.7351294617        8.0543114117       18.8501714461
 Cl         2.5033201376        9.2939148716       20.0754947445
 Zn         3.7351301778       18.8501602345        8.0543093956
 Cl         2.5033279802       20.0754943320        9.2939111138
 Zn        14.5358155995       14.7275044539        8.0080306286
 Cl        13.3077619309       13.4903692699        9.2401378555
 Zn        14.6024796832        3.8794805496       18.8767500078
 Cl        13.3915662054        2.6365027725       20.1210950508
 Zn         3.7415635245       14.7128739922       18.8481908141
 Cl         2.5161031405       13.4668666005       20.0740789583
 Zn         3.7374038550        3.9099447096        8.0547913015
 Cl         2.5080969367        2.6923433826        9.3037920464
 Zn         7.9202543964        7.9694611837        7.9694371024
 Cl         9.4428452095        9.0273847410        9.0273834940
 Zn         7.8510413551       18.8963434565       18.8963565138
 Cl         9.0178644433       20.1599106423       20.1599020596
 Zn        18.7063529663        8.0527890307       18.8348872951
 Cl        19.9432065645        9.2915989015       20.0568558593
 Zn        18.7063547334       18.8348806703        8.0527840151
 Cl        19.9431997560       20.0568583969        9.2915939598
 Zn        14.5358146725        8.0080341326       14.7275120025
 Cl        13.3077676416        9.2401380813       13.4903673597
 Zn        14.6024787942       18.8767428122        3.8794763310
 Cl        13.3915698120       20.1210985226        2.6365050796
 Zn         3.7374017284        8.0548000700        3.9099312064
 Cl         2.5080861426        9.3038006249        2.6923407907
 Zn         3.7415653622       18.8481816592       14.7128792168
 Cl         2.5161023516       20.0740673062       13.4668700666
 Zn         7.9161161264       14.7722543989       14.7722606702
 Cl         9.4196469612       13.7018206837       13.7018167825
 Zn         7.8378427763        3.8489151213        3.8489059704
 Cl         8.9877744069        2.5787545432        2.5787615684
 Zn        18.7097608067       14.7061714862        3.9014613221
 Cl        19.9476529123       13.4683454349        2.6796334143
 Zn        18.7097583036        3.9014702393       14.7061796985
 Cl        19.9476417707        2.6796420962       13.4683458021
 Zn         5.8117483903        5.9564220577       16.8130293139
 Zn        16.6318376582       16.7792830713       16.7792863513
 Zn        16.6311814263        5.9580131558        5.9580144823
 Zn         5.8117592324       16.8130343484        5.9564191606
 Zn         5.8049815909        5.9514623448        5.9514569704
 Zn        16.6306083342       16.7788364208        5.9590820110
 Zn         5.8202601758       16.8095767493       16.8095763201
 Zn        16.6305947040        5.9590861424       16.7788419794
  N         3.6276663219        5.9820159898       16.7805454873
  N        14.4495189028        5.9333689275        5.9333588497
  N        18.8215289104       16.7707314529       16.7707315421
  N         7.9992942311       16.8571009289        5.9052859023
  N        18.8171222780        5.9762758006        5.9762736141
  N         7.9992939996        5.9052973161       16.8571230667
  N         3.6276704024       16.7805358787        5.9820109962
  N        14.4536139534       16.8072997460       16.8073136067
  N        16.6564686353        3.7755959684        5.9653610285
  N        16.6199978892       14.5977087336       16.7812640699
  N        16.6547136450       18.9688265505       16.7816154627
  N        16.6167378398        8.1469783819        5.9591559791
  N         5.7870828222       18.9788408171        5.9674752075
  N         5.8231275613        8.1555303181       16.7968272513
  N         5.7915055140        3.7833292906       16.7941068557
  N         5.8364705060       14.6077550354        5.9807096032
  N         5.7915137853       16.7940896665        3.7833281212
  N         5.8364612115        5.9807253125       14.6077558954
  N        16.6547073770       16.7816087607       18.9688317505
  N        16.6167402012        5.9591654558        8.1469769105
  N         5.7870860690        5.9674855014       18.9788448403
  N         5.8231288803       16.7968105054        8.1555243493
  N        16.6564653262        5.9653653290        3.7755995151
  N        16.6200032287       16.7812544044       14.5977103767
  N         5.7830331166        3.7816759715        5.9651775570
  N         5.8317732426       14.6089674818       16.7889246435
  N        16.6549639026       18.9678493193        5.9708771283
  N        16.6164578117        8.1477614779       16.7786290610
  N         5.7950899795       18.9793629270       16.7933776869
  N         5.8290617578        8.1527963819        5.9676496584
  N        16.6546678800        3.7767783307       16.7850168561
  N        16.6204481778       14.5972424903        5.9580510680
  N         3.6302968444       16.7843016250       16.7843120164
  N        14.4502543500       16.8062858814        5.9362545620
  N        18.8192238406       16.7703502349        5.9763183025
  N         8.0036949245       16.8512192473       16.8512344395
  N        18.8192198768        5.9763314360       16.7703532581
  N         7.9979010332        5.8930231332        5.8930098035
  N         3.6250862827        5.9836122175        5.9835962404
  N        14.4502536230        5.9362689351       16.8063028928
  N        16.6549601630        5.9708873432       18.9678557124
  N        16.6164633600       16.7786165568        8.1477602442
  N        16.6546684070       16.7850068775        3.7767800453
  N        16.6204510882        5.9580634643       14.5972433963
  N         5.7830397143        5.9651976871        3.7816752303
  N         5.8317736622       16.7889168553       14.6089643187
  N         5.7950927895       16.7933645120       18.9793652270
  N         5.8290570732        5.9676785421        8.1527910879
  C        11.2160726405       15.7780817002       15.7780767954
  H        11.1969681236       15.0028751436       15.0028768030
  C        11.2374833632        4.8489673142        4.8489718683
  H        11.2518587667        4.0738190112        4.0738176733
  C         0.4059328436       15.7180096445        4.9191072981
  H         0.4075012807       14.9426016413        4.1434093892
  C         0.4059310538        4.9191160500       15.7180208960
  H         0.4075037765        4.1434186463       14.9426125984
  C        11.2133996678        6.9677590536       15.7773249364
  H        11.1953865151        7.7433400633       15.0025978596
  C        11.2387219109       17.8982313712        4.8596043429
  H        11.2529651934       18.6758054719        4.0867803379
  C         0.4009437011        7.0401889753        4.9230951068
  H         0.4001291527        7.8162385849        4.1479971768
  C         0.4056603661       17.8384336748       15.7211677641
  H         0.4050351749       18.6135127477       14.9450955203
  C        11.2134020623       15.7773228297        6.9677664620
  H        11.1953946692       15.0025905559        7.7433426777
  C        11.2387240763        4.8595937577       17.8982299014
  H        11.2529741337        4.0867721585       18.6758076923
  C         0.4056553518       15.7211594970       17.8384376619
  H         0.4050204031       14.9450869463       18.6135160749
  C         0.4009503000        4.9231052315        7.0401778993
  H         0.4001424553        4.1480056394        7.8162263536
  C        11.2129412560        6.9633291918        6.9633432543
  H        11.1945527976        7.7384913747        7.7385005583
  C        11.2436579655       17.8929816653       17.8929700823
  H        11.2585508460       18.6681872805       18.6681788574
  C         0.4006240611        7.0384035978       17.8330496849
  H         0.3976030097        7.8150126520       18.6076241955
  C         0.4006271810       17.8330385863        7.0383953606
  H         0.3976069409       18.6076131647        7.8150035869
  C        15.5456663661       11.3740375239       15.7299960188
  H        14.7635609338       11.3759387077       14.9611276438
  C        15.6086748757        0.5511681354        4.9039249650
  H        14.8409934102        0.5501521025        4.1203468141
  C         4.7655618846       11.3835717999        4.9349945991
  H         3.9827928244       11.3867752023        4.1661713291
  C         4.7481136017        0.5605871652       15.7135130313
  H         3.9821263268        0.5597217470       14.9287617189
  C        15.5473255551       11.3732150989        7.0101378935
  H        14.7651917819       11.3750127440        7.7790708975
  C        15.6079059066        0.5523216543       17.8483550071
  H        14.8395757490        0.5512683019       18.6312249665
  C         4.7604235407       11.3850621171       17.8341561624
  H         3.9782995901       11.3878266595       18.6034986926
  C         4.7406603029        0.5596634050        7.0487330041
  H         3.9753301279        0.5588892206        7.8341725887
  C         6.9006237709       11.3792865410       15.7434845359
  H         7.6929684897       11.3749959569       14.9862636164
  C         6.8276554297        0.5604201008        4.8997923076
  H         7.5902424818        0.5610731277        4.1109642760
  C        17.6844573017       11.3713614273        4.9144117212
  H        18.4672493109       11.3697151036        4.1461424215
  C        17.7040367096        0.5535975461       15.7101818277
  H        18.4721310186        0.5547418168       14.9274013153
  C         6.9037687373       11.3765462849        7.0261192571
  H         7.6921022382       11.3716920975        7.7871147432
  C         6.8377471761        0.5617131937       17.8596864226
  H         7.6016555259        0.5625263001       18.6472376064
  C        17.6828571895       11.3717638235       17.8258987259
  H        18.4656649245       11.3699708399       18.5942525454
  C        17.7031970825        0.5525701396        7.0437207644
  H        18.4708381090        0.5536271020        7.8268803694
  C        15.5456613994       15.7299956477       11.3740399249
  H        14.7635590733       14.9611244665       11.3759467909
  C        15.6086809691        4.9039223836        0.5511711564
  H        14.8409979389        4.1203458042        0.5501548429
  C         4.7481036063       15.7135088822        0.5605870855
  H         3.9821197981       14.9287541104        0.5597207604
  C         4.7655841695        4.9349911281       11.3835681531
  H         3.9828159218        4.1661653411       11.3867737282
  C         6.9006318201       15.7434730760       11.3792860937
  H         7.6929778756       14.9862531354       11.3749996548
  C         6.8276487391        4.8997962616        0.5604244745
  H         7.5902396088        4.1109706673        0.5610848637
  C        17.7040459057       15.7101859256        0.5535995219
  H        18.4721362824       14.9274020283        0.5547446228
  C        17.6844543214        4.9144181378       11.3713612926
  H        18.4672480980        4.1461508207       11.3697167252
  C        15.5473191656        7.0101394742       11.3732147825
  H        14.7651862267        7.7790730040       11.3750103377
  C        15.6079165264       17.8483629824        0.5523261519
  H        14.8395830091       18.6312306939        0.5512738921
  C         4.7406474679        7.0487345603        0.5596628914
  H         3.9753191935        7.8341750578        0.5588855093
  C         4.7604353309       17.8341475966       11.3850558300
  H         3.9783133484       18.6034902290       11.3878175719
  C         6.9037806976        7.0261201262       11.3765507805
  H         7.6921138932        7.7871150318       11.3716996467
  C         6.8377373124       17.8596860436        0.5617132150
  H         7.6016482527       18.6472340740        0.5625278986
  C        17.7032037333        7.0437195906        0.5525761389
  H        18.4708423642        7.8268822436        0.5536341511
  C        17.6828504929       17.8258983718       11.3717624546
  H        18.4656612514       18.5942486363       11.3699637004
 Xe         8.3215456400       11.3522587880       11.3522526837
