     409
 i =     150, E =    -5183.7524306561
  N         2.8130600075        5.1969999961       15.9963907951
  C         1.4954212228        5.4678714552       16.2658625680
  N        13.6245310672        5.1320760881        5.1320756439
  C        12.3065145907        5.4039626910        5.4039649444
  N        19.5087229401       17.5536035749       15.9988473755
  C        20.8264865051       17.2861041418       16.2702079394
  N         8.6673850609       17.5923208166        5.1624385791
  C         9.9887827326       17.3312751125        5.4225070999
  N        19.4877685402        5.2034584808        6.7599053119
  C        20.8058784575        5.4737456482        6.4898955975
  N         8.6673842671        5.1624382377       17.5923235050
  C         9.9887815415        5.4225086738       17.3312770130
  N         2.8138163640       17.5483472637        6.7567451647
  C         1.4959868428       17.2798835977        6.4858470096
  N        13.6359671331       17.6133256536       17.6133277669
  C        12.3179063273       17.3417698207       17.3417689858
  N        15.8140697316        3.0280793719        5.1768250443
  C        16.0837439363        1.7128784255        5.4532677730
  N        15.7651706812       13.8583590078       16.0075288698
  C        16.0379820435       12.5397457265       16.2724491596
  N        15.8270220785       19.7189165346       17.5695685067
  C        16.0930385853       21.0348445462       17.2934403347
  N        15.7475062948        8.8961249739        6.7469736118
  C        16.0207462876       10.2152967365        6.4848812015
  N         6.4974037641       19.7202061026        5.1905525286
  C         6.2282458578       21.0361573374        5.4647573662
  N         6.5525551187        8.8943645378       16.0089365385
  C         6.2850130492       10.2138370949       16.2775419438
  N         6.5016706070        3.0330145373       17.5747473831
  C         6.2359686272        1.7163307874       17.2993431001
  N         6.5463681090       13.8546426025        6.7330394702
  C         6.2747866719       12.5356893631        6.4678084839
  N         4.9613223797       16.0041402046        3.0342901906
  C         5.2297682888       16.2737821755        1.7163251622
  N         4.9772112804        5.1903738052       13.8517542137
  C         5.2502438478        5.4603027847       12.5349470627
  N        17.3638173003       15.9953590247       19.7161209557
  C        17.0965215435       16.2651227581       21.0346831601
  N        17.3172392734        5.2050455799        8.9007787498
  C        17.0463164155        5.4785691975       10.2176624273
  N         4.9561143181        6.7598390652       19.7152935186
  C         5.2215749709        6.4898466955       21.0342906793
  N         4.9829837992       17.5507125916        8.8992462227
  C         5.2602513143       17.2847673712       10.2156753880
  N        17.3478646072        6.7541801414        3.0346980872
  C        17.0854617637        6.4831961229        1.7155733068
  N        17.3405160998       17.5445819833       13.8560767450
  C        17.0668733518       17.2756709266       12.5389845263
  N         4.9507203476        3.0341260651        6.7545857792
  C         5.2193096497        1.7156036703        6.4868238946
  N         4.9877060840       13.8523407429       17.5566070599
  C         5.2619968898       12.5355743674       17.2879890499
  N        17.3553324035       19.7162143208        6.7532744040
  C        17.0890371325       21.0347520632        6.4826725176
  N        17.3347446904        8.9013275690       17.5517399558
  C        17.0643152749       10.2182856687       17.2793470417
  N         4.9678917219       19.7170058542       16.0001488459
  C         5.2326885978       21.0356438007       16.2713994755
  N         4.9742199084        8.8983956693        5.1941251200
  C         5.2492909768       10.2148715634        5.4625287187
  N        17.3530326711        3.0348438195       15.9947250887
  C        17.0912470713        1.7154974817       16.2648564332
  N        17.3206050138       13.8561724500        5.2132169789
  C        17.0478492073       12.5388754675        5.4828815760
  N         2.8239837500       15.9986374422       17.5538341143
  C         1.5064971383       16.2700934964       17.2859916781
  N        13.6353454546       16.0611913415        6.6920405891
  C        12.3172271687       16.3277512156        6.4244808070
  N        19.4958587199       15.9959788316        5.2002421499
  C        20.8141690765       16.2656662974        5.4689283682
  N         8.6910435821       16.0338946523       16.0338920356
  C        10.0046765626       16.3133752514       16.3133703707
  N        19.4973393495        6.7564496141       17.5510454437
  C        20.8149626487        6.4856414291       17.2810390004
  N         8.6797405249        6.7119878197        6.7119897641
  C         9.9933924521        6.4324877561        6.4324916239
  N         2.8059060606        6.7575666891        5.2010427888
  C         1.4879669066        6.4888013632        5.4727045175
  N        13.6353432605        6.6920446155       16.0611919680
  C        12.3172249756        6.4244842576       16.3277529916
  N        15.8206427789        5.1758795663       19.7196271530
  C        16.0869999858        5.4528051643       21.0353862666
  N        15.7612165874       16.0145255699        8.8976730659
  C        16.0359142220       16.2759581331       10.2165930692
  N        15.8175863821       17.5692950267        3.0273230996
  C        16.0882130467       17.2933933185        1.7121895113
  N        15.7502328736        6.7557146598       13.8581409701
  C        16.0221622905        6.4893780744       12.5394377278
  N         6.4918070195        5.1846298388        3.0308203398
  C         6.2258054031        5.4615485891        1.7146447257
  N         6.5562171767       16.0132985573       13.8553375678
  C         6.2862772058       16.2802244064       12.5364076945
  N         6.5084610320       17.5700246976       19.7211248448
  C         6.2390557659       17.2967636996       21.0374009538
  N         6.5439341583        6.7357999466        8.8936019179
  C         6.2741352799        6.4696951527       10.2130996099
  N        19.4973375159       17.5510530407        6.7564512491
  C        20.8149611819       17.2810480734        6.4856402453
  N         8.6734588081       17.5901404083       17.5901360367
  C         9.9947719574       17.3290533743       17.3290473654
  N         2.8059067182        5.2010424655        6.7575654272
  C         1.4879676629        5.4727043057        6.4888001174
  N        13.6297924927        5.1379758072       17.6168817280
  C        12.3118714852        5.4095718569       17.3445773802
  N         2.8239853474       17.5538297379       15.9986423311
  C         1.5064985360       17.2859874949       16.2700980032
  N        13.6297949651       17.6168797854        5.1379693817
  C        12.3118731837       17.3445758495        5.4095675015
  N        19.4958618233        5.2002390013       15.9959722209
  C        20.8141726840        5.4689295587       16.2656571399
  N         8.6617662256        5.1568873111        5.1568900375
  C         9.9832351170        5.4170911223        5.4170949576
  N         6.5084630985       19.7211258022       17.5700255749
  C         6.2390577968       21.0374019997       17.2967642085
  N         6.5439316156        8.8935990400        6.7358011930
  C         6.2741331864       10.2130964966        6.4696965177
  N         6.4918079648        3.0308164954        5.1846259909
  C         6.2258064388        1.7146407653        5.4615460421
  N         6.5562120569       13.8553402674       16.0133001533
  C         6.2862731369       12.5364104653       16.2802258377
  N        15.8175721522        3.0273173947       17.5692984600
  C        16.0882047051        1.7121846948       17.2933962046
  N        15.7502272316       13.8581399144        6.7557215665
  C        16.0221537738       12.5394373202        6.4893785075
  N        15.8206429973       19.7196275135        5.1758840853
  C        16.0870001528       21.0353870497        5.4528084191
  N        15.7612110968        8.8976735867       16.0145252099
  C        16.0359103874       10.2165935170       16.2759602034
  N        17.3553308234        6.7532740340       19.7162135888
  C        17.0890338532        6.4826724851       21.0347509941
  N        17.3347499351       17.5517398461        8.9013309889
  C        17.0643200484       17.2793441919       10.2182887545
  N         4.9507166150        6.7545865794        3.0341287043
  C         5.2193066652        6.4868241474        1.7156067446
  N         4.9877130722       17.5566076460       13.8523400844
  C         5.2620024454       17.2879892776       12.5355732083
  N        17.3530432182       15.9947189538        3.0348433909
  C        17.0912532651       16.2648515940        1.7154977453
  N        17.3206127818        5.2132125475       13.8561683875
  C        17.0478602756        5.4828836801       12.5388711720
  N         4.9678886358       16.0001488650       19.7170066418
  C         5.2326856017       16.2713999811       21.0356444307
  N         4.9742211562        5.1941251150        8.8983970722
  C         5.2492921648        5.4625280434       10.2148730124
  N        17.3638229353       19.7161212741       15.9953568974
  C        17.0965277958       21.0346828597       16.2651237253
  N        17.3172451546        8.9007841015        5.2050388013
  C        17.0463159152       10.2176679862        5.4785595893
  N         4.9613184521        3.0342901956       16.0041395809
  C         5.2297655085        1.7163250328       16.2737797146
  N         4.9772135653       13.8517524070        5.1903763290
  C         5.2502448744       12.5349454328        5.4603064754
  N        17.3478668373        3.0346993124        6.7541798908
  C        17.0854654211        1.7155744364        6.4831959676
  N        17.3405228439       13.8560745478       17.5445926360
  C        17.0668759251       12.5389824920       17.2756792686
  N         4.9561149628       19.7152902594        6.7598404901
  C         5.2215769987       21.0342873852        6.4898475519
  N         4.9829868848        8.8992476424       17.5507130688
  C         5.2602524505       10.2156768390       17.2847676689
  N        19.4877685966        6.7599039487        5.2034612471
  C        20.8058778553        6.4898931380        5.4737497332
  N         8.6851976540        6.7137098984       16.0325029914
  C         9.9988730103        6.4356430559       16.3133703709
  N         2.8138177393        6.7567461615       17.5483531786
  C         1.4959879765        6.4858506874       17.2798862198
  N        13.6300087442        6.6873480644        6.6873469939
  C        12.3118334161        6.4198944974        6.4198971099
  N         2.8130566990       15.9963854264        5.1969982383
  C         1.4954172959       16.2658605448        5.4678670568
  N        13.6408698646       16.0589588132       16.0589625452
  C        12.3229073371       16.3259716100       16.3259715533
  N        19.5087226820       15.9988514688       17.5536017520
  C        20.8264852420       16.2702118523       17.2861008221
  N         8.6852003677       16.0324991684        6.7137088248
  C         9.9988752966       16.3133678700        6.4356404885
  N         6.5016757880       17.5747468542        3.0330135506
  C         6.2359727401       17.2993444545        1.7163297173
  N         6.5463674963        6.7330351215       13.8546455748
  C         6.2747863970        6.4678037467       12.5356925345
  N         6.4974042868        5.1905522266       19.7202106616
  C         6.2282455445        5.4647579062       21.0361619434
  N         6.5525522496       16.0089362981        8.8943610113
  C         6.2850110403       16.2775410036       10.2138335498
  N        15.8270172564       17.5695718904       19.7189210437
  C        16.0930338660       17.2934409864       21.0348488122
  N        15.7474978855        6.7469775178        8.8961247511
  C        16.0207445251        6.4848877640       10.2152963974
  N        15.8140701934        5.1768222974        3.0280791731
  C        16.0837432638        5.4532649748        1.7128781248
  N        15.7651616535       16.0075211768       13.8583564253
  C        16.0379770654       16.2724429208       12.5397435347
 Zn        14.4576931574       14.7576929253       14.7577037909
 Cl        13.0228104734       13.6387127753       13.6387146899
 Zn        14.5263142519        3.8553903668        3.8553919235
 Cl        13.3575274725        2.5934808145        2.5934866177
 Zn         3.6778860509       14.7097313887        3.9006284142
 Cl         2.4432110004       13.4730665537        2.6742440279
 Zn         3.6778838945        3.9006285480       14.7097330322
 Cl         2.4432309452        2.6742316591       13.4730590836
 Zn         7.8450728692        8.0115550261       14.7263726394
 Cl         9.0778090030        9.2417932740       13.4924033663
 Zn         7.7871466847       18.8792916546        3.8868019067
 Cl         8.9998377898       20.1253087317        2.6476452698
 Zn        18.6201888513        8.0528145697        3.9103175260
 Cl        19.8499415259        9.3010323511        2.6912290752
 Zn        18.6466378738       18.8370607164       14.7063181364
 Cl        19.8711491333       20.0600461712       13.4561244244
 Zn         7.8450732513       14.7263721321        8.0115564074
 Cl         9.0778022836       13.4923896957        9.2417889583
 Zn         7.7871457068        3.8867989987       18.8792940063
 Cl         8.9998330994        2.6476479334       20.1253216490
 Zn        18.6466506456       14.7063232844       18.8370699980
 Cl        19.8711254036       13.4561033106       20.0600678363
 Zn        18.6201844790        3.9103225791        8.0528158277
 Cl        19.8499587372        2.6912342283        9.3010117475
 Zn        14.4430258248        7.9953587378        7.9953526059
 Cl        12.9866258215        9.1002923145        9.1003131376
 Zn        14.5411627134       18.8857093710       18.8857077134
 Cl        13.3687258037       20.1469130024       20.1469101177
 Zn         3.6772935323        8.0537608677       18.8354315157
 Cl         2.4404832635        9.2948092589       20.0556389745
 Zn         3.6772890629       18.8354308450        8.0537607764
 Cl         2.4404992627       20.0556471672        9.2948221115
 Zn        14.4496742342       14.7664758749        8.0065329001
 Cl        13.0046157013       13.7034953988        9.1665051883
 Zn        14.5322843089        3.8570565339       18.8861781510
 Cl        13.3591715257        2.5973385509       20.1472477664
 Zn         3.6849014901       14.7077308478       18.8428935333
 Cl         2.4499096593       13.4705247552       20.0688417149
 Zn         3.6715608871        3.9056865829        8.0505146513
 Cl         2.4346077857        2.6861186548        9.2914570702
 Zn         7.8414539860        8.0124854787        8.0124862998
 Cl         9.0745518236        9.2447391776        9.2447497939
 Zn         7.7939493783       18.8751755162       18.8751755151
 Cl         9.0122222366       20.1149031967       20.1148858630
 Zn        18.6357399773        8.0505181614       18.8406915085
 Cl        19.8661490952        9.2890449183       20.0693462908
 Zn        18.6357333356       18.8406979357        8.0505197006
 Cl        19.8661672851       20.0693403621        9.2890332187
 Zn        14.4496744032        8.0065306057       14.7664689488
 Cl        13.0046022638        9.1665051022       13.7035056611
 Zn        14.5323033962       18.8861778202        3.8570520796
 Cl        13.3591764444       20.1472492796        2.5973477081
 Zn         3.6715581157        8.0505159390        3.9056881857
 Cl         2.4345981259        9.2914609740        2.6861304624
 Zn         3.6849028605       18.8428905945       14.7077316129
 Cl         2.4499212997       20.0688380849       13.4705127191
 Zn         7.8497316100       14.7296896258       14.7296923636
 Cl         9.0831052905       13.4982283852       13.4982307457
 Zn         7.7794319700        3.8786657448        3.8786632947
 Cl         8.9866115856        2.6333720703        2.6333644378
 Zn        18.6248545470       14.7037426704        3.9150084328
 Cl        19.8512612577       13.4463929521        2.7008341943
 Zn        18.6248482646        3.9149960237       14.7037456410
 Cl        19.8512752514        2.7008524028       13.4463862538
 Zn         5.7431153518        5.9614695215       16.7814366312
 Zn        16.5674211761       16.7913357812       16.7913335166
 Zn        16.5549785128        5.9539067122        5.9539066671
 Zn         5.7431171837       16.7814344042        5.9614684164
 Zn         5.7366100105        5.9605207106        5.9605215291
 Zn        16.5596774158       16.7977858235        5.9566528755
 Zn         5.7545173866       16.7821474239       16.7821486971
 Zn        16.5596772566        5.9566502125       16.7978054443
  N         3.5597540477        5.9769098561       16.7720146864
  N        14.3734506879        5.9099314809        5.9099290255
  N        18.7615733891       16.7749110470       16.7749078935
  N         7.9296052887       16.8074751300        5.9425118060
  N        18.7413660976        5.9815095481        5.9815116366
  N         7.9296033720        5.9425116976       16.8074785701
  N         3.5597517531       16.7720071857        5.9769094931
  N        14.3849293093       16.8358755965       16.8358801335
  N        16.5789066129        3.7777219144        5.9635654234
  N        16.5533150489       14.6037283246       16.7781358158
  N        16.5954164009       18.9712385126       16.7846710528
  N        16.5323689423        8.1513971930        5.9720676315
  N         5.7281128128       18.9709529011        5.9736214385
  N         5.7645955099        8.1502851622       16.7792271971
  N         5.7310095426        3.7801778076       16.7909299774
  N         5.7613496405       14.5994750503        5.9605232229
  N         5.7310150085       16.7909294180        3.7801773058
  N         5.7613474430        5.9605200301       14.5994774338
  N        16.5954114109       16.7846757495       18.9712404458
  N        16.5323573627        5.9720708881        8.1513943355
  N         5.7281131159        5.9736203694       18.9709568381
  N         5.7645918445       16.7792271186        8.1502826042
  N        16.5789064138        5.9635641446        3.7777212567
  N        16.5533055290       16.7781257844       14.6037279820
  N         5.7207868584        3.7790077650        5.9669666186
  N         5.7706019949       14.6001279870       16.7852124987
  N        16.5876593991       18.9719927662        5.9624621640
  N        16.5470665465        8.1525209397       16.7869477386
  N         5.7397324098       18.9722398229       16.7858702732
  N         5.7572777751        8.1494760587        5.9641759653
  N        16.5828976702        3.7776381245       16.7839886218
  N        16.5362871700       14.6039524770        5.9823188594
  N         3.5705551705       16.7750591989       16.7750643780
  N        14.3788549572       16.8391560340        5.9153979310
  N        18.7498734553       16.7735926826        5.9790137513
  N         7.9360160587       16.8074139396       16.8074117878
  N        18.7498759302        5.9790091018       16.7735872375
  N         7.9238532227        5.9392068568        5.9392082757
  N         3.5520401617        5.9785146592        5.9785139152
  N        14.3788529899        5.9154035405       16.8391575249
  N        16.5876588576        5.9624594367       18.9719934822
  N        16.5470724832       16.7869486411        8.1525224880
  N        16.5829124915       16.7839830695        3.7776408151
  N        16.5362911600        5.9823082246       14.6039518778
  N         5.7207843947        5.9669692805        3.7790110232
  N         5.7706087051       16.7852118949       14.6001262850
  N         5.7397296147       16.7858693293       18.9722397960
  N         5.7572800511        5.9641756585        8.1494781675
  C        11.1688590277       15.7697570877       15.7697556204
  H        11.1831003572       14.9943137090       14.9943167843
  C        11.1387639883        4.8600749232        4.8600768433
  H        11.1266746586        4.0847458325        4.0847431970
  C         0.3345893690       15.7160432749        4.9174681464
  H         0.3349689054       14.9407574528        4.1417040961
  C         0.3345963800        4.9174714424       15.7160391242
  H         0.3349858118        4.1417062427       14.9407547350
  C        11.1631094353        6.9791170497       15.7699591949
  H        11.1773293797        7.7549879419       14.9949824412
  C        11.1443013656       17.8894919641        4.8666911606
  H        11.1329037318       18.6664488805        4.0930043270
  C         0.3269699240        7.0397568876        4.9235126737
  H         0.3275798913        7.8158729463        4.1485528676
  C         0.3464898516       17.8371276090       15.7199100705
  H         0.3471477951       18.6121895534       14.9438332013
  C        11.1631111914       15.7699567827        6.9791137528
  H        11.1773238465       14.9949792682        7.7549841256
  C        11.1443000423        4.8666932723       17.8894935530
  H        11.1329025618        4.0930057303       18.6664495724
  C         0.3464844540       15.7199095294       17.8371282890
  H         0.3471286610       14.9438334804       18.6121909883
  C         0.3269726147        4.9235090381        7.0397562939
  H         0.3275916620        4.1485464526        7.8158696915
  C        11.1575316745        6.9758818397        6.9758853152
  H        11.1716824864        7.7512744147        7.7512773189
  C        11.1505597826       17.8858562160       17.8858526381
  H        11.1396475981       18.6611789882       18.6611770204
  C         0.3357413600        7.0367127937       17.8302304656
  H         0.3366582454        7.8134589801       18.6046401344
  C         0.3357428136       17.8302329233        7.0367107313
  H         0.3366682101       18.6046393382        7.8134599701
  C        15.4797032001       11.3778180069       15.7320525962
  H        14.6887724177       11.3760951109       14.9731948778
  C        15.5422515264        0.5534875783        4.8944491216
  H        14.7787130497        0.5525650213        4.1066445557
  C         4.6948804053       11.3746726069        4.9157564000
  H         3.9130305585       11.3740771360        4.1465026055
  C         4.6860459542        0.5558175334       15.7166040314
  H         3.9175578387        0.5558381161       14.9341736615
  C        15.4665301903       11.3766301837        7.0309836592
  H        14.6801165752       11.3743490052        7.7942363210
  C        15.5466928689        0.5524351388       17.8513305641
  H        14.7822116326        0.5507888484       18.6382245944
  C         4.7067930330       11.3753457371       17.8327869744
  H         3.9250432058       11.3746717505       18.6022143654
  C         4.6754823093        0.5550756347        7.0444564798
  H         3.9071308575        0.5555495483        7.8269796879
  C         6.8409507923       11.3753734367       15.7336985455
  H         7.6224353528       11.3761616445       14.9641975244
  C         6.7732107044        0.5552460676        4.9079784715
  H         7.5418570164        0.5549750480        4.1253938269
  C        17.6027184437       11.3788509543        4.9362609678
  H        18.3852936115       11.3800340123        4.1673015021
  C        17.6378506590        0.5562488523       15.7074461784
  H        18.4043330795        0.5580747272       14.9231542259
  C         6.8292079631       11.3746025048        7.0145704819
  H         7.6106523736       11.3753337403        7.7841964280
  C         6.7834383713        0.5570000568       17.8535277982
  H         7.5521490846        0.5572098883       18.6360033838
  C        17.6226883057       11.3788333642       17.8209394148
  H        18.4060252018       11.3795128496       18.5890463538
  C        17.6305731790        0.5558946463        7.0409821708
  H        18.3964771484        0.5569303553        7.8258722052
  C        15.4797011477       15.7320503057       11.3778145494
  H        14.6887668443       14.9731961234       11.3760881870
  C        15.5422533843        4.8944433535        0.5534868395
  H        14.7787193801        4.1066345773        0.5525629848
  C         4.6860448266       15.7166066807        0.5558201463
  H         3.9175547015       14.9341782236        0.5558484087
  C         4.6948801141        4.9157545057       11.3746731473
  H         3.9130304733        4.1465005145       11.3740738828
  C         6.8409504065       15.7336960320       11.3753687411
  H         7.6224323038       14.9641924836       11.3761521189
  C         6.7732117449        4.9079816642        0.5552506668
  H         7.5418613788        4.1254001528        0.5549806424
  C        17.6378494624       15.7074432097        0.5562453978
  H        18.4043326194       14.9231521157        0.5580640649
  C        17.6027274365        4.9362699153       11.3788419912
  H        18.3853038642        4.1673121173       11.3800122218
  C        15.4665331731        7.0309856933       11.3766334422
  H        14.6801153459        7.7942339721       11.3743592133
  C        15.5466965071       17.8513316501        0.5524436111
  H        14.7822205078       18.6382309881        0.5508054615
  C         4.6754783432        7.0444552403        0.5550788948
  H         3.9071250625        7.8269764936        0.5555546704
  C         4.7067963618       17.8327873321       11.3753456660
  H         3.9250479501       18.6022162362       11.3746750421
  C         6.8292089124        7.0145671977       11.3746068906
  H         7.6106526635        7.7841937796       11.3753434418
  C         6.7834405601       17.8535275798        0.5569967018
  H         7.5521534800       18.6360010266        0.5571983983
  C        17.6305670008        7.0409845747        0.5558937922
  H        18.3964671150        7.8258782305        0.5569288253
  C        17.6226912321       17.8209334857       11.3788378128
  H        18.4060299004       18.5890390504       11.3795198976
 Xe        14.7801694905       11.3549471714       11.3549360603
