     409
 i =     150, E =    -5183.7540156742
  N         2.9834874261        5.2083092511       16.0293884634
  C         1.6652205139        5.4782201559       16.2960678280
  N        13.7921803731        5.2014539706        5.2014520016
  C        12.4750434148        5.4735692178        5.4735664449
  N        19.6781786879       17.5745850117       16.0184196774
  C        20.9958621902       17.3063753866       16.2903071593
  N         8.8467841682       17.5821112191        5.2149969751
  C        10.1645357702       17.3085653875        5.4801799419
  N        19.6541397693        5.2003727695        6.7567470963
  C        20.9719797812        5.4744134488        6.4905370881
  N         8.8467817802        5.2149971579       17.5821127507
  C        10.1645334921        5.4801835660       17.3085705964
  N         2.9795689538       17.5837828240        6.7659704530
  C         1.6624727177       17.3114446258        6.4948744009
  N        13.8148396645       17.5755701804       17.5755707219
  C        12.4967462367       17.3070833713       17.3070846123
  N        15.9453869809        3.0435952825        5.1986555859
  C        16.2162767396        1.7260630955        5.4684527776
  N        15.9655349515       13.8668001008       16.0185458333
  C        16.2339367792       12.5489973564       16.2881082444
  N        15.9671638611       19.7278793768       17.5731787142
  C        16.2343750138       21.0457108246       17.3017044956
  N        15.9496764843        8.9111672912        6.7572903929
  C        16.2221785986       10.2283158889        6.4881725765
  N         6.6930027587       19.7413093901        5.2160419068
  C         6.4209554826       21.0587698228        5.4856033676
  N         6.6932559716        8.9192920314       16.0262797168
  C         6.4245565738       10.2371101396       16.2959051824
  N         6.6976125128        3.0593654463       17.5863547862
  C         6.4318745849        1.7408836390       17.3147176250
  N         6.6866325035       13.8750420833        6.7694944663
  C         6.4133477662       12.5577847944        6.5020849494
  N         5.1423662818       16.0298485880        3.0562873277
  C         5.4161447946       16.2984336900        1.7390629638
  N         5.1327730328        5.2121553551       13.8765862108
  C         5.3984950240        5.4850137889       12.5587037645
  N        17.5227233904       16.0168748119       19.7292830758
  C        17.2502639691       16.2855981315       21.0467997975
  N        17.5020042064        5.1987366416        8.9090878727
  C        17.2363976920        5.4705291169       10.2269770850
  N         5.1353902098        6.7701696010       19.7395625579
  C         5.4041594357        6.5008739893       21.0575757125
  N         5.1369140301       17.5821518684        8.9212778138
  C         5.4086487873       17.3120719962       10.2384992609
  N        17.4994209675        6.7558330677        3.0446538744
  C        17.2311549796        6.4854892702        1.7269116147
  N        17.5222730448       17.5739036231       13.8646611341
  C        17.2501602426       17.3039290929       12.5474386869
  N         5.1279302198        3.0560972328        6.7698326993
  C         5.4000474335        1.7384766471        6.5009257288
  N         5.1465053604       13.8770142049       17.5840233577
  C         5.4131894876       12.5590236102       17.3127549122
  N        17.5058324757       19.7291833950        6.7549683898
  C        17.2344231497       21.0464800055        6.4850341007
  N        17.5105156284        8.9089880992       17.5755611053
  C        17.2444300263       10.2269964889       17.3044472907
  N         5.1506359029       19.7400639365       16.0287788595
  C         5.4202053691       21.0580280579       16.2979575826
  N         5.1258598978        8.9209764097        5.2154967211
  C         5.3951789666       10.2383751231        5.4867360452
  N        17.5147326321        3.0458213474       16.0154375040
  C        17.2462454464        1.7277490506       16.2850237296
  N        17.5129169480       13.8645958805        5.2009082766
  C        17.2418050672       12.5472924091        5.4713780678
  N         2.9943585899       16.0296037723       17.5851906623
  C         1.6766722574       16.2955343742       17.3114628659
  N        13.8033681010       16.0164404093        6.7565755278
  C        12.4856756925       16.2879774581        6.4889915541
  N        19.6672436484       16.0198617414        5.2028833713
  C        20.9842673151       16.2914094000        5.4752007650
  N         8.8557587661       16.0258723559       16.0258709819
  C        10.1738801475       16.2943470379       16.2943469294
  N        19.6627935293        6.7577314797       17.5770757578
  C        20.9813481358        6.4907893496       17.3079027928
  N         8.8395417157        6.7660243411        6.7660232346
  C        10.1566662237        6.4940194620        6.4940173669
  N         2.9713190641        6.7673277594        5.2113043100
  C         1.6534648117        6.4957313802        5.4796905730
  N        13.8033661088        6.7565753843       16.0164428798
  C        12.4856737549        6.4889950000       16.2879835631
  N        15.9526536604        5.1968471939       19.7273175321
  C        16.2198947486        5.4676337749       21.0453548470
  N        15.9563286728       16.0185973528        8.9115794306
  C        16.2290993137       16.2878947461       10.2286905231
  N        15.9577765943       17.5704605941        3.0436361902
  C        16.2298241554       17.3006295397        1.7263795951
  N        15.9579371857        6.7579294727       13.8660650051
  C        16.2266919947        6.4882999763       12.5484290447
  N         6.6822136415        5.2133025175        3.0575707216
  C         6.4156402578        5.4846385502        1.7395808745
  N         6.7012377163       16.0272624279       13.8749630977
  C         6.4285603820       16.2961762866       12.5576730890
  N         6.7073419901       17.5844823948       19.7417562414
  C         6.4364335597       17.3138726139       21.0593795898
  N         6.6814380770        6.7713333985        8.9202133753
  C         6.4106932510        6.5031767684       10.2377261945
  N        19.6627967254       17.5770765944        6.7577311928
  C        20.9813509205       17.3079025106        6.4907887999
  N         8.8593168895       17.5819768981       17.5819768185
  C        10.1762837562       17.3103766413       17.3103772263
  N         2.9713186252        5.2113000725        6.7673280265
  C         1.6534644039        5.4796876823        6.4957317099
  N        13.8024053223        5.1996641506       17.5719798668
  C        12.4850300875        5.4729931240       17.3040809673
  N         2.9943579019       17.5851928879       16.0296014794
  C         1.6766715246       17.3114643858       16.2955329414
  N        13.8024078343       17.5719763378        5.1996638836
  C        12.4850323605       17.3040743365        5.4729893499
  N        19.6672420734        5.2028832460       16.0198603056
  C        20.9842657148        5.4752007764       16.2914092557
  N         8.8350569231        5.2100435898        5.2100445205
  C        10.1536541430        5.4779744012        5.4779733928
  N         6.7073418838       19.7417561770       17.5844819694
  C         6.4364331582       21.0593793190       17.3138721155
  N         6.6814384923        8.9202128297        6.7713357008
  C         6.4106958406       10.2377257098        6.5031768640
  N         6.6822116290        3.0575698632        5.2133027991
  C         6.4156376284        1.7395798672        5.4846368270
  N         6.7012391114       13.8749629605       16.0272625782
  C         6.4285617274       12.5576729904       16.2961773354
  N        15.9577739711        3.0436339056       17.5704585570
  C        16.2298218061        1.7263774072       17.3006280124
  N        15.9579407239       13.8660677727        6.7579282135
  C        16.2266904063       12.5484317956        6.4882928747
  N        15.9526550847       19.7273164349        5.1968501671
  C        16.2198952894       21.0453539007        5.4676366474
  N        15.9563243051        8.9115798042       16.0185961884
  C        16.2290968484       10.2286907848       16.2878923765
  N        17.5058285333        6.7549678364       19.7291834812
  C        17.2344211316        6.4850327152       21.0464801235
  N        17.5105212937       17.5755611328        8.9089886737
  C        17.2444329353       17.3044490240       10.2269970443
  N         5.1279323163        6.7698330846        3.0560995791
  C         5.4000500385        6.5009276968        1.7384784990
  N         5.1465041444       17.5840229936       13.8770132771
  C         5.4131883503       17.3127538485       12.5590230556
  N        17.5147346774       16.0154398368        3.0458236397
  C        17.2462474632       16.2850254210        1.7277513908
  N        17.5129132357        5.2009086074       13.8645928785
  C        17.2418066117        5.4713844423       12.5472894352
  N         5.1506346859       16.0287809418       19.7400644462
  C         5.4202049651       16.2979589642       21.0580283288
  N         5.1258591465        5.2154942167        8.9209769907
  C         5.3951761954        5.4867361305       10.2383759218
  N        17.5227229284       19.7292813211       16.0168738032
  C        17.2502631035       21.0467975817       16.2855967944
  N        17.5020052602        8.9090897332        5.1987339951
  C        17.2363945435       10.2269795985        5.4705215751
  N         5.1423628969        3.0562872545       16.0298498483
  C         5.4161424087        1.7390628414       16.2984331519
  N         5.1327765604       13.8765846875        5.2121536986
  C         5.3984997088       12.5587025280        5.4850126427
  N        17.4994215493        3.0446532712        6.7558340760
  C        17.2311560535        1.7269111531        6.4854908410
  N        17.5222710532       13.8646611832       17.5739039162
  C        17.2501589366       12.5474385639       17.3039278201
  N         5.1353911261       19.7395613037        6.7701682342
  C         5.4041586491       21.0575743968        6.5008712850
  N         5.1369127831        8.9212776516       17.5821518345
  C         5.4086483484       10.2384992627       17.3120731784
  N        19.6541399202        6.7567472912        5.2003744248
  C        20.9719801341        6.4905367038        5.4744154965
  N         8.8473051398        6.7671726193       16.0231942724
  C        10.1649613620        6.4945061449       16.2909851958
  N         2.9795664631        6.7659716342       17.5837836645
  C         1.6624702843        6.4948747641       17.3114453424
  N        13.7962239126        6.7579580052        6.7579552819
  C        12.4778968929        6.4896649083        6.4896617621
  N         2.9834892599       16.0293869695        5.2083079554
  C         1.6652221803       16.2960666803        5.4782196550
  N        13.8115707949       16.0197674251       16.0197672489
  C        12.4944841413       16.2911087641       16.2911096500
  N        19.6781794367       16.0184186438       17.5745848003
  C        20.9958629371       16.2903075499       17.3063742399
  N         8.8473068624       16.0231918686        6.7671721097
  C        10.1649632552       16.2909796104        6.4945025009
  N         6.6976158012       17.5863542227        3.0593655832
  C         6.4318770072       17.3147183373        1.7408838884
  N         6.6866306571        6.7694946753       13.8750426737
  C         6.4133438318        6.5020853304       12.5577854483
  N         6.6930022164        5.2160438869       19.7413098814
  C         6.4209565497        5.4856065968       21.0587705083
  N         6.6932560635       16.0262787090        8.9192923311
  C         6.4245565296       16.2959033886       10.2371104844
  N        15.9671643237       17.5731796898       19.7278814305
  C        16.2343756911       17.3017058914       21.0457129884
  N        15.9496749501        6.7572927894        8.9111646643
  C        16.2221816006        6.4881797713       10.2283132683
  N        15.9453886307        5.1986526161        3.0435966264
  C        16.2162772007        5.4684497638        1.7260643182
  N        15.9655371298       16.0185452253       13.8667993730
  C        16.2339382721       16.2881092240       12.5489966808
 Zn        14.6701712351       14.7258471173       14.7258467482
 Cl        13.4382096498       13.4935422300       13.4935416756
 Zn        14.6548310560        3.9060341286        3.9060343846
 Cl        13.4175802105        2.6761728486        2.6761708975
 Zn         3.8461632076       14.7387573841        3.9133875491
 Cl         2.6143239385       13.5053776243        2.6815954926
 Zn         3.8461621779        3.9133909351       14.7387627532
 Cl         2.6143272631        2.6815970718       13.5053811240
 Zn         7.9847615542        8.0586392613       14.7299147417
 Cl         9.2132967016        9.2923225169       13.4952623678
 Zn         7.9888269122       18.8786797153        3.9276164135
 Cl         9.2223609383       20.1104730532        2.6952551172
 Zn        18.7897700694        8.0490078036        3.9042476679
 Cl        20.0242574405        9.2803101841        2.6726447622
 Zn        18.8171367396       18.8683069130       14.7240744652
 Cl        20.0486962412       20.0984783381       13.4893139365
 Zn         7.9847592458       14.7299133126        8.0586401360
 Cl         9.2132943537       13.4952606656        9.2923229258
 Zn         7.9888235540        3.9276158156       18.8786797809
 Cl         9.2223601762        2.6952568699       20.1104731963
 Zn        18.8171357902       14.7240731535       18.8683082441
 Cl        20.0486951369       13.4893098187       20.0984776916
 Zn        18.7897685635        3.9042490467        8.0490079121
 Cl        20.0242586253        2.6726501603        9.2803106817
 Zn        14.6593176182        8.0519105718        8.0519069553
 Cl        13.4272223878        9.2843711682        9.2843675869
 Zn        14.6749643527       18.8690075314       18.8690086166
 Cl        13.4434253903       20.1015541306       20.1015557663
 Zn         3.8425725787        8.0601413688       18.8751453248
 Cl         2.6115845965        9.2962467823       20.1051989659
 Zn         3.8425726152       18.8751457497        8.0601419542
 Cl         2.6115837823       20.1051992471        9.2962475053
 Zn        14.6646055288       14.7243801274        8.0521541386
 Cl        13.4319789575       13.4920425717        9.2838995021
 Zn        14.6634958663        3.9026130445       18.8637937382
 Cl        13.4289717158        2.6699097514       20.0933458823
 Zn         3.8544415332       14.7378235046       18.8780252288
 Cl         2.6234676336       13.5042814323       20.1106082302
 Zn         3.8367692587        3.9203535031        8.0600439449
 Cl         2.6054152076        2.6899167272        9.2960072220
 Zn         7.9772232388        8.0590609829        8.0590623261
 Cl         9.2067547777        9.2929790624        9.2929814051
 Zn         8.0005085407       18.8765353537       18.8765352342
 Cl         9.2376860160       20.1063992406       20.1063978233
 Zn        18.7981547445        8.0492005078       18.8719505033
 Cl        20.0312261091        9.2806434555       20.1046715544
 Zn        18.7981617367       18.8719501828        8.0491998594
 Cl        20.0312295383       20.1046729937        9.2806439167
 Zn        14.6646016894        8.0521541543       14.7243789745
 Cl        13.4319749340        9.2839008294       13.4920423935
 Zn        14.6634975092       18.8637928014        3.9026157691
 Cl        13.4289735542       20.0933451987        2.6699126803
 Zn         3.8367698531        8.0600430303        3.9203597024
 Cl         2.6054161170        9.2960068172        2.6899230656
 Zn         3.8544415765       18.8780264630       14.7378190796
 Cl         2.6234698273       20.1106091717       13.5042745201
 Zn         7.9949088432       14.7321590383       14.7321577168
 Cl         9.2241864329       13.4985420510       13.4985426418
 Zn         7.9683823488        3.9180430182        3.9180460333
 Cl         9.2022991330        2.6859281681        2.6859283692
 Zn        18.8096688725       14.7243247613        3.9086058801
 Cl        20.0415272188       13.4896791465        2.6786844349
 Zn        18.8096680779        3.9086044884       14.7243210248
 Cl        20.0415267446        2.6786827827       13.4896748160
 Zn         5.9100031357        5.9942337416       16.8113043451
 Zn        16.7481948677       16.7947024152       16.7946990355
 Zn        16.7210521178        5.9760759989        5.9760823226
 Zn         5.9100074111       16.8113042990        5.9942329272
 Zn         5.9018708149        5.9943740984        5.9943757709
 Zn        16.7292108268       16.7933149457        5.9756686045
 Zn         5.9304165300       16.8122720385       16.8122713797
 Zn        16.7292060485        5.9756634909       16.7933132833
  N         3.7278967021        5.9874133416       16.8080722172
  N        14.5403057028        5.9787765497        5.9787765261
  N        18.9317950227       16.7955935624       16.7955939841
  N         8.1002586324       16.8044099495        5.9929772478
  N        18.9077706255        5.9764522611        5.9764532331
  N         8.1002562539        5.9929754908       16.8044092438
  N         3.7278987510       16.8080708292        5.9874122966
  N        14.5599199191       16.7969659698       16.7969659628
  N        16.7216103703        3.7907286173        5.9775965573
  N        16.7447698487       14.6121322422       16.7963057271
  N        16.7462918977       18.9819535293       16.7958071428
  N        16.7237993535        8.1633811656        5.9769178070
  N         5.9149232904       18.9940331104        5.9930825393
  N         5.9142796371        8.1740211040       16.8043409660
  N         5.9176853130        3.8044683630       16.8090122133
  N         5.9118309360       14.6225663996        5.9893844551
  N         5.9176894990       16.8090106378        3.8044684654
  N         5.9118288882        5.9893848107       14.6225672725
  N        16.7462921963       16.7958080708       18.9819553722
  N        16.7237934728        5.9769148266        8.1633793934
  N         5.9149210175        5.9930830955       18.9940338755
  N         5.9142809992       16.8043409099        8.1740213460
  N        16.7216126330        5.9775929297        3.7907300608
  N        16.7447727209       16.7963041216       14.6121316404
  N         5.9036931139        3.8036380192        5.9908212913
  N         5.9255159382       14.6227265942       16.8064096697
  N        16.7302575021       18.9815375296        5.9757706252
  N        16.7316107631        8.1635258327       16.7977268819
  N         5.9292136613       18.9945970736       16.8071272921
  N         5.9041161471        8.1742262308        5.9926113525
  N        16.7352206854        3.7912029792       16.7929500523
  N        16.7356473394       14.6117084624        5.9790146764
  N         3.7411596731       16.8095437651       16.8095413480
  N        14.5491246802       16.7931987670        5.9766447447
  N        18.9184142929       16.7979399974        5.9788683024
  N         8.1112319326       16.8047823975       16.8047813537
  N        18.9184120375        5.9788672104       16.7979393494
  N         8.0907435260        5.9889824025        5.9889834777
  N         3.7176791580        5.9902020232        5.9902043619
  N        14.5491220837        5.9766413534       16.7931984565
  N        16.7302544232        5.9757689123       18.9815380835
  N        16.7316182480       16.7977252207        8.1635262407
  N        16.7352246002       16.7929533853        3.7912056673
  N        16.7356372805        5.9790087573       14.6117055918
  N         5.9036945228        5.9908200994        3.8036394260
  N         5.9255147504       16.8064097539       14.6227263660
  N         5.9292127886       16.8071284928       18.9945973258
  N         5.9041170741        5.9926075840        8.1742268894
  C        11.3326910844       15.7422591470       15.7422591679
  H        11.3302434536       14.9666958658       14.9666943633
  C        11.3123207203        4.9255117428        4.9255097540
  H        11.3092883489        4.1499695638        4.1499676039
  C         0.5065198484       15.7430414083        4.9267153102
  H         0.5096828412       14.9672759545        4.1513538138
  C         0.5065186925        4.9267156452       15.7430418009
  H         0.5096855143        4.1513548777       14.9672755233
  C        11.3258403306        7.0416335750       15.7385069067
  H        11.3269585292        7.8166615903       14.9624392188
  C        11.3241612520       17.8570899857        4.9264188617
  H        11.3232161272       18.6332512376        4.1514314921
  C         0.4927723108        7.0438132710        4.9272975042
  H         0.4930453705        7.8196496893        4.1520426946
  C         0.5163294199       17.8589979330       15.7422076219
  H         0.5165646707       18.6345115363       14.9665978218
  C        11.3258420119       15.7385002275        7.0416288800
  H        11.3269597561       14.9624328362        7.8166572589
  C        11.3241582604        4.9264237905       17.8570971301
  H        11.3232108510        4.1514364549       18.6332583562
  C         0.5163292224       15.7422083987       17.8589961642
  H         0.5165617993       14.9665981047       18.6345092304
  C         0.4927726647        4.9272938379        7.0438124874
  H         0.4930469727        4.1520377244        7.8196476025
  C        11.3192587405        7.0421193980        7.0421161567
  H        11.3227499380        7.8176686238        7.8176649483
  C        11.3380540328       17.8591753070       17.8591764034
  H        11.3403093371       18.6347345502       18.6347350787
  C         0.5001429973        7.0435290800       17.8596096025
  H         0.4974994442        7.8192533684       18.6349724184
  C         0.5001445973       17.8596094542        7.0435285349
  H         0.4974955533       18.6349731500        7.8192518659
  C        15.6812616232       11.3899831240       15.7372526561
  H        14.9056374506       11.3918505559       14.9617595646
  C        15.6680085614        0.5650683862        4.9172151800
  H        14.8927519717        0.5642042806        4.1413891661
  C         4.8462552699       11.3989269561        4.9354107766
  H         4.0716765338       11.3992669980        4.1589007288
  C         4.8683302582        0.5777291141       15.7474091139
  H         4.0928318657        0.5763928773       14.9717541920
  C        15.6746734782       11.3893603321        7.0395788009
  H        14.8994051943       11.3909658711        7.8154418521
  C        15.6813304132        0.5652465003       17.8511960201
  H        14.9053620335        0.5640588455       18.6263578475
  C         4.8605444983       11.3996734724       17.8629260531
  H         4.0854285923       11.4009261992       18.6389150988
  C         4.8518128008        0.5771151733        7.0514109576
  H         4.0762388014        0.5755697036        7.8269340945
  C         6.9765706996       11.3965459709       15.7450784102
  H         7.7518389058       11.3950271449       14.9691929222
  C         6.9690780932        0.5801942004        4.9350332660
  H         7.7449216168        0.5819844329        4.1597340709
  C        17.7891263209       11.3860924932        4.9198766340
  H        18.5633298030       11.3843613714        4.1429498066
  C        17.7983688662        0.5680741378       15.7346537533
  H        18.5736145626        0.5694585844       14.9587936054
  C         6.9614369529       11.3973757851        7.0544496430
  H         7.7366422213       11.3965871818        7.8304006909
  C         6.9847736675        0.5810348801       17.8641749646
  H         7.7602973827        0.5824982547       18.6397146057
  C        17.7978603365       11.3860109559       17.8546284674
  H        18.5731241940       11.3841043472       18.6304983180
  C        17.7824522777        0.5673494862        7.0366082183
  H        18.5568308817        0.5685515648        7.8133896274
  C        15.6812635937       15.7372541116       11.3899823295
  H        14.9056410158       14.9617594567       11.3918484160
  C        15.6680094088        4.9172113345        0.5650692013
  H        14.8927537795        4.1413843833        0.5642041509
  C         4.8683309970       15.7474103775        0.5777303857
  H         4.0928322924       14.9717558122        0.5763960738
  C         4.8462508731        4.9354120240       11.3989270351
  H         4.0716722342        4.1589018602       11.3992640017
  C         6.9765697835       15.7450762223       11.3965469582
  H         7.7518374539       14.9691901669       11.3950311969
  C         6.9690803980        4.9350365435        0.5801939393
  H         7.7449241555        4.1597376300        0.5819809235
  C        17.7983703452       15.7346552043        0.5680759736
  H        18.5736157860       14.9587948277        0.5694605994
  C        17.7891296385        4.9198845896       11.3860902396
  H        18.5633315030        4.1429561730       11.3843586986
  C        15.6746767754        7.0395869627       11.3893565811
  H        14.8994065935        7.8154483117       11.3909583974
  C        15.6813320426       17.8511973462        0.5652499120
  H        14.9053635858       18.6263591257        0.5640667843
  C         4.8518150880        7.0514136678        0.5771174116
  H         4.0762415151        7.8269372035        0.5755724983
  C         4.8605438194       17.8629246261       11.3996728172
  H         4.0854272696       18.6389130411       11.4009247584
  C         6.9614332759        7.0544497518       11.3973772255
  H         7.7366391936        7.8304000347       11.3965911828
  C         6.9847754184       17.8641753504        0.5810339634
  H         7.7602999046       18.6397143256        0.5824946989
  C        17.7824499494        7.0366073548        0.5673502998
  H        18.5568274261        7.8133898617        0.5685536477
  C        17.7978626497       17.8546300182       11.3860113426
  H        18.5731279591       18.6304984193       11.3841050334
 Xe         3.8663483461       10.4855283922       10.4855283799
