     409
 i =     150, E =    -5183.7520986147
  N         3.0053035100        5.2059129224       16.0253025132
  C         1.6869350932        5.4758161818       16.2926372277
  N        13.8144144135        5.2015916416        5.2017014348
  C        12.4972143989        5.4729600001        5.4729405545
  N        19.6939419927       17.5745820507       16.0180657428
  C        21.0118734360       17.3056487809       16.2895221661
  N         8.8668764386       17.5813227309        5.2096336485
  C        10.1845577007       17.3084509896        5.4763471971
  N        19.6785604525        5.2014932584        6.7575255380
  C        20.9961344833        5.4746715509        6.4906678595
  N         8.8668737073        5.2096309985       17.5812903381
  C        10.1845572281        5.4763495732       17.3084304830
  N         3.0020333483       17.5802378384        6.7628944719
  C         1.6848078510       17.3082410258        6.4922219152
  N        13.8312518840       17.5766161007       17.5766150921
  C        12.5129124249       17.3077781669       17.3077818545
  N        15.9670937498        3.0452066117        5.2004252038
  C        16.2375185831        1.7276068873        5.4710475127
  N        15.9803681276       13.8656173401       16.0184930859
  C        16.2487614147       12.5479210993       16.2890754944
  N        15.9843619887       19.7292702482       17.5733979337
  C        16.2507549440       21.0471624040       17.3015268667
  N        15.9700408253        8.9101440066        6.7564327584
  C        16.2409049026       10.2275465010        6.4864427420
  N         6.7123072010       19.7390833797        5.2114760767
  C         6.4403156709       21.0565061016        5.4807067555
  N         6.7120218387        8.9163216086       16.0236151857
  C         6.4425353426       10.2339652961       16.2928968602
  N         6.7152506026        3.0555001970       17.5845431715
  C         6.4482236288        1.7374570482       17.3133054787
  N         6.7100411179       13.8713002647        6.7655232420
  C         6.4370487742       12.5540973365        6.4973754358
  N         5.1623050279       16.0262709843        3.0539129381
  C         5.4339029071       16.2957178887        1.7364758545
  N         5.1557395910        5.2089701778       13.8731924518
  C         5.4217209560        5.4808735403       12.5552480254
  N        17.5377426628       16.0157240238       19.7305619003
  C        17.2655342455       16.2844278059       21.0480847336
  N        17.5249762552        5.1996412029        8.9091106267
  C        17.2564208227        5.4700014200       10.2267989150
  N         5.1551036339        6.7662096171       19.7375565246
  C         5.4236415923        6.4961111351       21.0555358260
  N         5.1567193043       17.5805427390        8.9175505271
  C         5.4272773083       17.3097366502       10.2348744910
  N        17.5236213134        6.7560620026        3.0461699989
  C        17.2537190112        6.4869236979        1.7284197017
  N        17.5363271293       17.5741538303       13.8647030740
  C        17.2647895888       17.3050221004       12.5473167365
  N         5.1492114651        3.0542458303        6.7649160632
  C         5.4205888908        1.7365773247        6.4955646958
  N         5.1647465944       13.8731067525       17.5817321441
  C         5.4311626566       12.5552263405       17.3102276546
  N        17.5292365850       19.7304211492        6.7559967508
  C        17.2566300723       21.0477398786        6.4870404271
  N        17.5312765881        8.9093629980       17.5761098316
  C        17.2622877438       10.2270071214       17.3059195496
  N         5.1673015210       19.7379626038       16.0258160949
  C         5.4364151517       21.0558107661       16.2954388193
  N         5.1480554768        8.9174536635        5.2102446101
  C         5.4180051961       10.2348237516        5.4814458919
  N        17.5320879332        3.0467594906       16.0159306607
  C        17.2624644915        1.7288467433       16.2846975603
  N        17.5316192017       13.8645283544        5.2018014498
  C        17.2597146886       12.5471937002        5.4708813986
  N         3.0116075332       16.0261250520       17.5823914460
  C         1.6936608517       16.2933155863       17.3093909113
  N        13.8233568480       16.0181541706        6.7563704902
  C        12.5056158991       16.2890318367        6.4877401821
  N        19.6882609983       16.0185765281        5.2019354231
  C        21.0056279931       16.2893598843        5.4737080271
  N         8.8717200041       16.0247012756       16.0246903415
  C        10.1898173134       16.2938596029       16.2938608420
  N        19.6857214625        6.7574676485       17.5757249634
  C        21.0037881296        6.4894583560       17.3057874832
  N         8.8615326518        6.7631648411        6.7633120027
  C        10.1786203588        6.4919672108        6.4919447897
  N         2.9944505762        6.7652063763        5.2094659233
  C         1.6767826396        6.4944595128        5.4784600819
  N        13.8233523885        6.7563667084       16.0181294872
  C        12.5056153852        6.4877406465       16.2890141632
  N        15.9740294014        5.1995273850       19.7284847423
  C        16.2409200605        5.4707906375       21.0465579297
  N        15.9760606464       16.0196834825        8.9100496901
  C        16.2465689640       16.2896727899       10.2274925979
  N        15.9767885672       17.5724417369        3.0452892311
  C        16.2470072604       17.3012485893        1.7278521853
  N        15.9758791127        6.7577909415       13.8657355894
  C        16.2438784617        6.4870380581       12.5479987773
  N         6.7052328366        5.2092855111        3.0551301783
  C         6.4367961425        5.4798305624        1.7372958179
  N         6.7177222984       16.0240205781       13.8716202453
  C         6.4456748510       16.2929185021       12.5542666909
  N         6.7209022959       17.5837120751       19.7391369412
  C         6.4510079941       17.3128421439       21.0566498242
  N         6.7047432376        6.7656919682        8.9164768248
  C         6.4340952266        6.4974543737       10.2340030857
  N        19.6857227695       17.5757221771        6.7574601892
  C        21.0037892859       17.3057678662        6.4894670083
  N         8.8741437552       17.5811227204       17.5811115430
  C        10.1915513920       17.3099474802       17.3099484972
  N         2.9944525004        5.2094941115        6.7651799306
  C         1.6767794798        5.4784869890        6.4944327520
  N        13.8230413883        5.2002211649       17.5738178296
  C        12.5053658985        5.4718903459       17.3051612927
  N         3.0116056283       17.5823946762       16.0261234406
  C         1.6936617429       17.3093933652       16.2933141513
  N        13.8230408237       17.5738420585        5.2002245314
  C        12.5053680310       17.3051788479        5.4718891623
  N        19.6882578615        5.2019427563       16.0185802441
  C        21.0056267790        5.4736986173       16.2893792489
  N         8.8585175061        5.2072901386        5.2074316488
  C        10.1765786841        5.4759799432        5.4759540955
  N         6.7209112557       19.7391478888       17.5836987153
  C         6.4510019158       21.0566636143       17.3128444020
  N         6.7046719890        8.9164791355        6.7657325846
  C         6.4340860168       10.2340084478        6.4974390756
  N         6.7052927224        3.0551413969        5.2093109039
  C         6.4368135954        1.7373100543        5.4798212870
  N         6.7177212195       13.8716293108       16.0240187833
  C         6.4456803863       12.5542762173       16.2929204722
  N        15.9767756173        3.0452972938       17.5724249127
  C        16.2470092302        1.7278591629       17.3012483483
  N        15.9759054566       13.8657576749        6.7578064350
  C        16.2438948605       12.5480195808        6.4870380535
  N        15.9740144816       19.7285062950        5.1995246037
  C        16.2408968002       21.0465762282        5.4707970299
  N        15.9760599011        8.9100584244       16.0196828377
  C        16.2465632241       10.2275013933       16.2896752677
  N        17.5292500329        6.7560004697       19.7304007954
  C        17.2566526326        6.4870358648       21.0477198825
  N        17.5312775383       17.5761109684        8.9093551054
  C        17.2622929508       17.3059169419       10.2269980143
  N         5.1491466289        6.7648783672        3.0542276263
  C         5.4205669714        6.4955705143        1.7365649211
  N         5.1647493516       17.5817353458       13.8730988698
  C         5.4311580228       17.3102267468       12.5552180929
  N        17.5320993854       16.0159473649        3.0467541051
  C        17.2624623071       16.2846971560        1.7288393313
  N        17.5315938831        5.2017860943       13.8645032854
  C        17.2596985977        5.4708827393       12.5471701577
  N         5.1672916736       16.0258288850       19.7379498738
  C         5.4364214933       16.2954368693       21.0557982534
  N         5.1481261983        5.2101983475        8.9174469955
  C         5.4180152432        5.4814615407       10.2348196985
  N        17.5377415516       19.7305682964       16.0157150413
  C        17.2655366531       21.0480912790       16.2844277863
  N        17.5250155969        8.9091333385        5.1996613703
  C        17.2564363840       10.2268193158        5.4699904269
  N         5.1623120347        3.0539226989       16.0262479066
  C         5.4338898272        1.7364872106       16.2957214483
  N         5.1556976928       13.8732066580        5.2089994162
  C         5.4217116254       12.5552601934        5.4808689701
  N        17.5235904412        3.0461912489        6.7560740890
  C        17.2537018759        1.7284364019        6.4869190433
  N        17.5363238576       13.8647099113       17.5741499061
  C        17.2647824279       12.5473250621       17.3050243131
  N         5.1551314209       19.7375746819        6.7662113013
  C         5.4236699558       21.0555541774        6.4961158483
  N         5.1567238682        8.9175567296       17.5805417752
  C         5.4272765768       10.2348810818       17.3097318368
  N        19.6785676080        6.7575505521        5.2014690498
  C        20.9961323963        6.4906937418        5.4746465735
  N         8.8672353666        6.7635079959       16.0229499161
  C        10.1847901468        6.4912844629       16.2912864727
  N         3.0020312691        6.7628920246       17.5802460823
  C         1.6848083585        6.4922108873       17.3082612334
  N        13.8172171501        6.7575485929        6.7576557393
  C        12.4991732259        6.4889642773        6.4889445699
  N         3.0053036589       16.0252947039        5.2059136475
  C         1.6869354063       16.2926173959        5.4758267564
  N        13.8283118750       16.0204611736       16.0204592348
  C        12.5110393923       16.2917320386       16.2917354555
  N        19.6939406683       16.0180737550       17.5745723617
  C        21.0118722745       16.2895256005       17.3056442685
  N         8.8672305497       16.0229851435        6.7635109792
  C        10.1847890145       16.2913077876        6.4912831501
  N         6.7152420293       17.5845670024        3.0554874836
  C         6.4482363640       17.3133024345        1.7374449352
  N         6.7100881775        6.7654880163       13.8712840063
  C         6.4370605963        6.4973758522       12.5540866687
  N         6.7122785435        5.2114747845       19.7390608271
  C         6.4402881541        5.4807015088       21.0564890167
  N         6.7120170920       16.0236155415        8.9163152806
  C         6.4425351786       16.2929013695       10.2339579833
  N        15.9843634945       17.5734069029       19.7292660036
  C        16.2507526469       17.3015271885       21.0471567861
  N        15.9699999120        6.7564168870        8.9101268583
  C        16.2408901027        6.4864524859       10.2275250271
  N        15.9671259063        5.2004153375        3.0451936709
  C        16.2375355146        5.4710504246        1.7275889327
  N        15.9803711399       16.0184970599       13.8656094720
  C        16.2487686429       16.2890732736       12.5479131722
 Zn        14.6874887447       14.7256717640       14.7256643352
 Cl        13.4533814419       13.4943026169       13.4943111113
 Zn        14.6728792040        3.9068229011        3.9068238846
 Cl        13.4378032865        2.6761510909        2.6761370005
 Zn         3.8692488343       14.7331186876        3.9112991801
 Cl         2.6357736741       13.5010221942        2.6796704072
 Zn         3.8692518442        3.9113135734       14.7331089593
 Cl         2.6357757992        2.6796719128       13.5010271147
 Zn         8.0047073375        8.0563103223       14.7288708706
 Cl         9.2362100591        9.2892709116       13.4965114808
 Zn         8.0053773837       18.8775038563        3.9195879246
 Cl         9.2396403570       20.1092936548        2.6882544824
 Zn        18.8181968461        8.0494785371        3.9055912858
 Cl        20.0502026970        9.2820190642        2.6735623820
 Zn        18.8290813934       18.8681540720       14.7237492273
 Cl        20.0615575018       20.0973842859       13.4883880214
 Zn         8.0047067667       14.7288819653        8.0563063083
 Cl         9.2362017896       13.4965127408        9.2892657050
 Zn         8.0053772952        3.9196010864       18.8774949080
 Cl         9.2396327917        2.6882662942       20.1092914772
 Zn        18.8290845942       14.7237521615       18.8681512958
 Cl        20.0615500096       13.4883851488       20.0973867351
 Zn        18.8181829155        3.9056130571        8.0494558920
 Cl        20.0501933970        2.6735873820        9.2819924792
 Zn        14.6767943680        8.0513284666        8.0513260200
 Cl        13.4455103626        9.2839926337        9.2839815017
 Zn        14.6975801182       18.8699392608       18.8699334180
 Cl        13.4640055639       20.1019110282       20.1019196161
 Zn         3.8613906202        8.0568875432       18.8735842449
 Cl         2.6307155618        9.2925541071       20.1040446511
 Zn         3.8614024481       18.8735905552        8.0568765688
 Cl         2.6307191017       20.1040343735        9.2925506867
 Zn        14.6828682064       14.7253414649        8.0514647183
 Cl        13.4504612747       13.4937153084        9.2841611275
 Zn        14.6832847091        3.9047622553       18.8667647823
 Cl        13.4493602697        2.6724157546       20.0972448599
 Zn         3.8769991673       14.7329806454       18.8759937651
 Cl         2.6435866740       13.5006929796       20.1079316738
 Zn         3.8544933150        3.9154289448        8.0568544110
 Cl         2.6238677646        2.6845277294        9.2920948542
 Zn         8.0008032407        8.0563214356        8.0563214966
 Cl         9.2317914293        9.2892134763        9.2892191101
 Zn         8.0118307955       18.8755945619       18.8755882797
 Cl         9.2484889453       20.1059157341       20.1059096820
 Zn        18.8228439297        8.0494917691       18.8710878420
 Cl        20.0548624055        9.2823488639       20.1029823957
 Zn        18.8228408421       18.8710928084        8.0494796770
 Cl        20.0548612135       20.1029767752        9.2823454087
 Zn        14.6828703803        8.0514682867       14.7253333429
 Cl        13.4504539154        9.2841592866       13.4937119364
 Zn        14.6832905809       18.8667741762        3.9047568425
 Cl        13.4493598496       20.0972527134        2.6724158543
 Zn         3.8544793993        8.0568670199        3.9154011102
 Cl         2.6238467966        9.2921128957        2.6845099649
 Zn         3.8770027451       18.8759967737       14.7329771815
 Cl         2.6435900412       20.1079324972       13.5006870385
 Zn         8.0088594861       14.7301703344       14.7301651675
 Cl         9.2414683039       13.4979851382       13.4979834028
 Zn         7.9976750622        3.9143573846        3.9143459416
 Cl         9.2296486177        2.6819276465        2.6819225005
 Zn        18.8253144011       14.7239649551        3.9083873978
 Cl        20.0575653453       13.4897911190        2.6779932234
 Zn        18.8253088611        3.9083974537       14.7239592197
 Cl        20.0575598800        2.6779957079       13.4897924844
 Zn         5.9395708020        5.9912694103       16.8090839457
 Zn        16.7647827329       16.7948616940       16.7948700204
 Zn        16.7488035305        5.9771437798        5.9770852548
 Zn         5.9395650335       16.8091015163        5.9912649705
 Zn         5.9293679597        5.9909346322        5.9909578547
 Zn        16.7591974446       16.7955394869        5.9779820856
 Zn         5.9458416716       16.8092504833       16.8092350606
 Zn        16.7591916889        5.9779991819       16.7954964173
  N         3.7502776539        5.9846069646       16.8040250287
  N        14.5623690487        5.9789472897        5.9790344675
  N        18.9477327021       16.7956514211       16.7956570264
  N         8.1207342515       16.8035636888        5.9880757009
  N        18.9321002345        5.9778188544        5.9777969554
  N         8.1207355613        5.9880698214       16.8035510879
  N         3.7502775582       16.8040225710        5.9846027054
  N        14.5762945864       16.7979143246       16.7979177378
  N        16.7454234339        3.7921851677        5.9778227157
  N        16.7593281876       14.6116457075       16.7958525817
  N        16.7626469450       18.9831604117       16.7956221933
  N        16.7470588568        8.1630415631        5.9779616090
  N         5.9347934156       18.9919127767        5.9891992446
  N         5.9343551658        8.1706953970       16.8026188072
  N         5.9376227755        3.8014526086       16.8058713578
  N         5.9348684087       14.6191060128        5.9861494026
  N         5.9376198029       16.8058723644        3.8014419831
  N         5.9348928100        5.9861280009       14.6190928594
  N        16.7626517490       16.7956198678       18.9831558392
  N        16.7470411606        5.9779730906        8.1630177087
  N         5.9347794385        5.9891852903       18.9918945836
  N         5.9343575150       16.8026273160        8.1706883482
  N        16.7454248858        5.9778412781        3.7921646910
  N        16.7593290807       16.7958501137       14.6116391130
  N         5.9265964196        3.8013899470        5.9867874858
  N         5.9428405784       14.6192281940       16.8038398038
  N        16.7533006986       18.9828190342        5.9770282148
  N        16.7534776108        8.1631377559       16.7978633531
  N         5.9443953877       18.9920851805       16.8050098324
  N         5.9267476819        8.1706855501        5.9872389914
  N        16.7545153238        3.7925633795       16.7949240141
  N        16.7548774622       14.6116537137        5.9803051276
  N         3.7580126709       16.8058063344       16.8058030984
  N        14.5698525680       16.7954502050        5.9775746253
  N        18.9407219525       16.7970128687        5.9787450860
  N         8.1267600952       16.8034973784       16.8034913427
  N        18.9407199582        5.9787519666       16.7970086151
  N         8.1134860715        5.9859099244        5.9860072538
  N         3.7411260636        5.9878012658        5.9877971462
  N        14.5698508490        5.9775692708       16.7954367809
  N        16.7533017705        5.9770279537       18.9827981588
  N        16.7534806583       16.7978705886        8.1631280065
  N        16.7545239681       16.7949305955        3.7925550837
  N        16.7548586643        5.9802978119       14.6116304231
  N         5.9265842266        5.9867780998        3.8013795250
  N         5.9428364850       16.8038434473       14.6192184069
  N         5.9443910582       16.8050173240       18.9920713788
  N         5.9267697096        5.9872228042        8.1706836151
  C        11.3494589486       15.7425188151       15.7425200727
  H        11.3478619656       14.9669574325       14.9669586231
  C        11.3355277551        4.9240083243        4.9240349870
  H        11.3333264610        4.1483729972        4.1485508165
  C         0.5275612684       15.7403543615        4.9248407040
  H         0.5296459415       14.9645430851        4.1495648098
  C         0.5275594495        4.9248278197       15.7403783431
  H         0.5296434420        4.1495415575       14.9645768869
  C        11.3455087254        7.0394462076       15.7393112248
  H        11.3459359144        7.8147085970       14.9634639336
  C        11.3447285136       17.8573922629        4.9239169986
  H        11.3441878111       18.6334722951        4.1488746719
  C         0.5164949021        7.0434821736        4.9265945238
  H         0.5165252954        7.8193576705        4.1513533322
  C         0.5328065037       17.8573695703       15.7409961013
  H         0.5328693246       18.6327857851       14.9653213158
  C        11.3455075370       15.7393355129        7.0394484645
  H        11.3459307077       14.9634999445        7.8147244622
  C        11.3447252784        4.9239152536       17.8573701751
  H        11.3441798629        4.1488596303       18.6334389566
  C         0.5328040796       15.7409981492       17.8573653250
  H         0.5328605057       14.9653221090       18.6327812366
  C         0.5164960687        4.9266200968        7.0434546104
  H         0.5165368717        4.1513762135        7.8193300211
  C        11.3402807124        7.0408921885        7.0409224676
  H        11.3424774492        7.8163751090        7.8165581957
  C        11.3532657695       17.8591035519       17.8591047820
  H        11.3546925601       18.6346471831       18.6346483745
  C         0.5231275733        7.0414886141       17.8569962227
  H         0.5211610491        7.8172763765       18.6323283646
  C         0.5231281843       17.8569724714        7.0415020444
  H         0.5211592365       18.6322945610        7.8173002866
  C        15.6971074302       11.3880807391       15.7388763913
  H        14.9216723002       11.3886949542       14.9631701185
  C        15.6884484037        0.5663715796        4.9209339340
  H        14.9127377659        0.5651694819        4.1455338259
  C         4.8690786264       11.3957956594        4.9308975993
  H         4.0940083415       11.3969137634        4.1548538331
  C         4.8857328010        0.5756395802       15.7440854515
  H         4.1112351677        0.5747134934       14.9674273382
  C        15.6919658512       11.3883351345        7.0373056220
  H        14.9166811613       11.3892764406        7.8131557974
  C        15.6983895280        0.5667128145       17.8517817052
  H        14.9232168934        0.5653234119       18.6277563154
  C         4.8790489704       11.3958617400       17.8608576030
  H         4.1045022185       11.3971200460       18.6374337854
  C         4.8717062130        0.5755080440        7.0461411855
  H         4.0963108125        0.5744848141        7.8218457639
  C         6.9937909064       11.3934414748       15.7415157138
  H         7.7688031287       11.3922717763       14.9653829149
  C         6.9892724926        0.5775324052        4.9301948925
  H         7.7654136108        0.5785228677        4.1552027848
  C        17.8083354951       11.3864617371        4.9197339221
  H        18.5838228079       11.3856645467        4.1441063765
  C        17.8135448644        0.5692203129       15.7332598663
  H        18.5884348453        0.5705051740       14.9570473306
  C         6.9854374235       11.3934152157        7.0486586435
  H         7.7610674836       11.3923109127        7.8241611805
  C         6.9995524503        0.5776205886       17.8639781122
  H         7.7743141179        0.5784709890       18.6403082432
  C        17.8139824615       11.3867948921       17.8560289425
  H        18.5897340583       11.3863197181       18.6314046811
  C        17.8051384921        0.5687846922        7.0377719417
  H        18.5805654524        0.5699387806        7.8134707262
  C        15.6971149073       15.7388732485       11.3880732171
  H        14.9216817040       14.9631649169       11.3886889222
  C        15.6884805898        4.9209216262        0.5663513996
  H        14.9127868165        4.1455036621        0.5651474149
  C         4.8857399454       15.7440861965        0.5756291965
  H         4.1112385250       14.9674308646        0.5747058740
  C         4.8691061594        4.9308870977       11.3957776325
  H         4.0940796004        4.1547985726       11.3968742661
  C         6.9937864202       15.7415138882       11.3934325116
  H         7.7687954784       14.9653781525       11.3922613418
  C         6.9892324843        4.9301832907        0.5775129428
  H         7.7653382272        4.1551531040        0.5784985730
  C        17.8135448239       15.7332615503        0.5692130187
  H        18.5884375176       14.9570509335        0.5704942351
  C        17.8083079649        4.9197276981       11.3864336278
  H        18.5837669319        4.1440717694       11.3856281004
  C        15.6919365447        7.0372974457       11.3883137501
  H        14.9166227476        7.8131186309       11.3892577835
  C        15.6983892037       17.8517848060        0.5667064907
  H        14.9232192075       18.6277612357        0.5653159497
  C         4.8716650566        7.0461252547        0.5754855054
  H         4.0962352933        7.8217940670        0.5744480995
  C         4.8790453449       17.8608584835       11.3958538571
  H         4.1044967184       18.6374329974       11.3971099103
  C         6.9854724056        7.0486469908       11.3934055011
  H         7.7611512006        7.8240994155       11.3923033550
  C         6.9995584975       17.8639781546        0.5776055556
  H         7.7743166419       18.6403112730        0.5784491245
  C        17.8051674571        7.0377623278        0.5687622038
  H        18.5806091497        7.8134453632        0.5699138212
  C        17.8139888962       17.8560255695       11.3867849604
  H        18.5897420029       18.6313998259       11.3863018791
 Xe         2.7179972665       10.5913001778       10.5912982144
