     409
 i =     150, E =    -5183.7348876429
  N         2.8805025078        5.2013183285       16.0050604178
  C         1.5624889013        5.4710603224       16.2716271591
  N        13.7139084657        5.1499486396        5.1499504557
  C        12.3910687599        5.4070739467        5.4070763020
  N        19.5665103188       17.5501531613       15.9953006452
  C        20.8839875809       17.2847948174       16.2689302833
  N         8.7532986863       17.6448935042        5.1205836898
  C        10.0691615193       17.3637052953        5.3945284037
  N        19.5621214189        5.1998694988        6.7556733380
  C        20.8794752829        5.4719161156        6.4878639246
  N         8.7532961194        5.1205797532       17.6448965525
  C        10.0691586616        5.3945264321       17.3637089011
  N         2.8767771656       17.5603693134        6.7579357177
  C         1.5600674276       17.2869993752        6.4876230551
  N        13.7184598509       17.5913047832       17.5913028256
  C        12.3957399557       17.3342785449       17.3342773825
  N        15.8871015709        3.0268664931        5.1816268990
  C        16.1537137872        1.7110009934        5.4586527329
  N        15.8305722677       13.8538958075       16.0100843308
  C        16.1008519933       12.5345763026       16.2752711174
  N        15.8853608858       19.7174414576       17.5658965511
  C        16.1533030627       21.0335581832       17.2916707663
  N        15.8282126153        8.8913221107        6.7309220883
  C        16.0999096094       10.2109776485        6.4661531464
  N         6.5513787656       19.7295421618        5.1792127803
  C         6.2846219335       21.0440438853        5.4583027029
  N         6.6016559348        8.8947950214       16.0340363337
  C         6.3353136934       10.2165312147       16.2947394669
  N         6.5563555479        3.0341412979       17.5828463639
  C         6.2918836752        1.7191886055       17.3029365551
  N         6.6156819271       13.8638072037        6.7444351928
  C         6.3442446834       12.5435521249        6.4802002721
  N         5.0228850532       16.0052143488        3.0388363234
  C         5.2902312162       16.2730856619        1.7206243840
  N         5.0435867738        5.2050252414       13.8609614775
  C         5.3165228933        5.4756763697       12.5437420585
  N        17.4241366068       15.9943233052       19.7136766547
  C        17.1587365147       16.2654220674       21.0324066656
  N        17.4002007698        5.1911367611        8.8957178691
  C        17.1261599546        5.4603923018       10.2121632287
  N         5.0170274501        6.7568240649       19.7239694928
  C         5.2832183621        6.4884969212       21.0420631839
  N         5.0305444658       17.5724310598        8.9067408362
  C         5.3074531234       17.2988483431       10.2221655577
  N        17.4248714522        6.7546833543        3.0315530297
  C        17.1583254949        6.4856980466        1.7128623150
  N        17.4028615748       17.5498999766       13.8492303222
  C        17.1271868779       17.2810150220       12.5327573382
  N         5.0154275870        3.0387907826        6.7573507960
  C         5.2819808754        1.7206247195        6.4889714238
  N         5.0387008396       13.8606526226       17.5634759694
  C         5.3115011573       12.5434939955       17.2942823654
  N        17.4239186626       19.7127965777        6.7590176195
  C        17.1583316322       21.0316008696        6.4882646696
  N        17.3991503489        8.8964152131       17.5472810705
  C        17.1245960338       10.2128365728       17.2791385094
  N         5.0247157100       19.7235720524       16.0046063898
  C         5.2915157570       21.0416093664       16.2731296574
  N         5.0373798138        8.9057738917        5.1973483036
  C         5.3133645262       10.2216032414        5.4714557874
  N        17.4245428948        3.0319958606       15.9978269419
  C        17.1584290957        1.7134630053       16.2676165406
  N        17.4039692814       13.8489833705        5.1896455008
  C        17.1287713541       12.5324395803        5.4590913129
  N         2.8809679112       16.0078533084       17.5632480528
  C         1.5635786755       16.2750975463       17.2910027946
  N        13.6887765034       16.0331240975        6.7068903524
  C        12.3764084258       16.3196726275        6.4247180408
  N        19.5658575137       15.9948747436        5.1982033247
  C        20.8826945038       16.2664368405        5.4691746571
  N         8.7372409036       16.0789636899       16.0789665365
  C        10.0590307698       16.3392713802       16.3392735073
  N        19.5623818992        6.7559369900       17.5476811361
  C        20.8802987847        6.4863751767       17.2809881492
  N         8.7341566212        6.6648245166        6.6648274891
  C        10.0556850960        6.4037312812        6.4037328825
  N         2.8768018611        6.7602833396        5.2040811926
  C         1.5593805865        6.4901255351        5.4740474309
  N        13.6887736645        6.7068922100       16.0331281704
  C        12.3764053271        6.4247189937       16.3196778926
  N        15.8863910858        5.1863490712       19.7170951985
  C        16.1537221233        5.4612667473       21.0329858154
  N        15.8272417574       16.0076150757        8.8921897142
  C        16.0983456973       16.2733937429       10.2117276228
  N        15.8850320909       17.5690638245        3.0282238207
  C        16.1527638100       17.2936889503        1.7120816066
  N        15.8314077202        6.7294285507       13.8533568832
  C        16.1023588322        6.4648133214       12.5339925663
  N         6.5477952706        5.1783814729        3.0337563738
  C         6.2827018821        5.4581350866        1.7191538417
  N         6.6092059026       16.0234652461       13.8624581535
  C         6.3388731640       16.2895848035       12.5425046805
  N         6.5607761771       17.5799803763       19.7281348490
  C         6.2942267407       17.3021312553       21.0432299556
  N         6.6096403756        6.7354407236        8.8950235862
  C         6.3413593298        6.4754479320       10.2165092493
  N        19.5623808495       17.5476790848        6.7559365650
  C        20.8802988196       17.2809852028        6.4863753177
  N         8.7563477229       17.6324959594       17.6324963992
  C        10.0720726528       17.3551441312       17.3551448724
  N         2.8768015330        5.2040793456        6.7602833840
  C         1.5593803731        5.4740464766        6.4901253360
  N        13.7160192973        5.1550420124       17.5934033903
  C        12.3931372114        5.4123796476       17.3378938071
  N         2.8809689234       17.5632455710       16.0078558010
  C         1.5635774964       17.2910009443       16.2750994252
  N        13.7160210709       17.5933982256        5.1550411362
  C        12.3931395550       17.3378888230        5.4123786655
  N        19.5658576755        5.1982043956       15.9948767594
  C        20.8826957832        5.4691742988       16.2664391405
  N         8.7502445881        5.1119037486        5.1119062446
  C        10.0667220712        5.3879718850        5.3879735216
  N         6.5607742237       19.7281347853       17.5799798365
  C         6.2942245254       21.0432297226       17.3021299795
  N         6.6096403998        8.8950224924        6.7354362704
  C         6.3413509986       10.2165082766        6.4754539983
  N         6.5477959045        3.0337561038        5.1783823282
  C         6.2827008410        1.7191532642        5.4581340326
  N         6.6092066925       13.8624562123       16.0234683550
  C         6.3388735684       12.5425026741       16.2895886064
  N        15.8850311568        3.0282212796       17.5690637245
  C        16.1527626789        1.7120801566       17.2936866855
  N        15.8314084777       13.8533587769        6.7294262001
  C        16.1023573403       12.5339939644        6.4648106641
  N        15.8863906058       19.7170920621        5.1863513003
  C        16.1537223355       21.0329824156        5.4612691085
  N        15.8272390782        8.8921912705       16.0076174896
  C        16.0983433583       10.2117292433       16.2733960553
  N        17.4239168097        6.7590177275       19.7128000079
  C        17.1583305153        6.4882645685       21.0316037213
  N        17.3991534400       17.5472781001        8.8964139194
  C        17.1245985483       17.2791354445       10.2128355917
  N         5.0154259823        6.7573491976        3.0387917676
  C         5.2819811798        6.4889717578        1.7206251642
  N         5.0386995765       17.5634732291       13.8606534104
  C         5.3115007075       17.2942783864       12.5434939543
  N        17.4245438565       15.9978278490        3.0319961784
  C        17.1584301575       16.2676191043        1.7134655131
  N        17.4039697401        5.1896479552       13.8489829678
  C        17.1287730974        5.4590943874       12.5324377129
  N         5.0247188983       16.0046070262       19.7235727106
  C         5.2915173098       16.2731298595       21.0416082499
  N         5.0373782622        5.1973536076        8.9057728066
  C         5.3133719149        5.4714503783       10.2216026621
  N        17.4241353804       19.7136749742       15.9943198818
  C        17.1587347841       21.0324036669       16.2654174459
  N        17.4001999103        8.8957195052        5.1911364928
  C        17.1261584350       10.2121651447        5.4603910416
  N         5.0228824783        3.0388351342       16.0052142709
  C         5.2902292165        1.7206243723       16.2730848743
  N         5.0435902235       13.8609621710        5.2050224252
  C         5.3165165455       12.5437418841        5.4756830025
  N        17.4248713804        3.0315490157        6.7546876428
  C        17.1583261447        1.7128588720        6.4857015132
  N        17.4028600524       13.8492329111       17.5499014933
  C        17.1271845566       12.5327584177       17.2810163571
  N         5.0170325629       19.7239673988        6.7568257513
  C         5.2832203146       21.0420607315        6.4884965478
  N         5.0305421115        8.9067404790       17.5724345229
  C         5.3074517682       10.2221658481       17.2988522415
  N        19.5621203799        6.7556727646        5.1998720264
  C        20.8794739464        6.4878636713        5.4719175314
  N         8.7345797334        6.6674321497       16.0855924442
  C        10.0563900673        6.4067064318       16.3444221601
  N         2.8767774710        6.7579356424       17.5603708152
  C         1.5600667333        6.4876222200       17.2870012836
  N        13.6885419639        6.7058714818        6.7058729046
  C        12.3758323925        6.4223007224        6.4223028151
  N         2.8805025514       16.0050593529        5.2013189515
  C         1.5624876147       16.2716251526        5.4710609326
  N        13.6916748247       16.0348812217       16.0348791938
  C        12.3792488630       16.3189345984       16.3189338685
  N        19.5665095591       15.9953007755       17.5501523965
  C        20.8839892153       16.2689300582       17.2847947184
  N         8.7345843093       16.0855883157        6.6674364113
  C        10.0563954553       16.3444185602        6.4067077356
  N         6.5563599832       17.5828457240        3.0341413236
  C         6.2918859646       17.3029366164        1.7191880329
  N         6.6156775380        6.7444384606       13.8638078704
  C         6.3442508165        6.4801935109       12.5435527403
  N         6.5513753504        5.1792135193       19.7295432292
  C         6.2846210265        5.4583047336       21.0440437965
  N         6.6016588190       16.0340337023        8.8947957060
  C         6.3353154507       16.2947359215       10.2165322606
  N        15.8853621414       17.5659009065       19.7174436170
  C        16.1533055008       17.2916753134       21.0335599287
  N        15.8282126324        6.7309213779        8.8913201819
  C        16.0999105903        6.4661539363       10.2109754771
  N        15.8871042024        5.1816204660        3.0268698570
  C        16.1537147338        5.4586476921        1.7110045879
  N        15.8305729501       16.0100845860       13.8538933706
  C        16.1008533430       16.2752703978       12.5345733781
 Zn        14.5332443307       14.7296651592       14.7296631447
 Cl        13.3046122864       13.4957101312       13.4957033809
 Zn        14.6041947570        3.8724517727        3.8724515271
 Cl        13.3948089725        2.6279918610        2.6279995704
 Zn         3.7403334517       14.7133198510        3.9090978366
 Cl         2.5163303602       13.4583720014        2.6918132924
 Zn         3.7403314376        3.9090967265       14.7133196386
 Cl         2.5163271434        2.6918136942       13.4583720548
 Zn         7.8998306798        7.9696269984       14.8094851184
 Cl         9.3897809219        9.1236019047       13.8277096247
 Zn         7.8430623846       18.9123674996        3.8516282718
 Cl         9.0028567010       20.1788875396        2.5871395915
 Zn        18.7067972299        8.0498017015        3.9034005941
 Cl        19.9458832402        9.2879587067        2.6839410128
 Zn        18.7070133000       18.8371444396       14.7031415235
 Cl        19.9433984545       20.0601437226       13.4641369817
 Zn         7.8998345734       14.8094822319        7.9696244837
 Cl         9.3897800483       13.8277006942        9.1236002382
 Zn         7.8430633023        3.8516269004       18.9123762624
 Cl         9.0028550956        2.5871318438       20.1788929710
 Zn        18.7070104284       14.7031408364       18.8371463031
 Cl        19.9433959811       13.4641334704       20.0601421756
 Zn        18.7067975043        3.9033991668        8.0498019706
 Cl        19.9458798401        2.6839442120        9.2879666071
 Zn        14.5313716074        8.0082752930        8.0082730090
 Cl        13.3011557334        9.2422036100        9.2422008171
 Zn        14.6021648129       18.8741647493       18.8741664111
 Cl        13.3892813837       20.1165815399       20.1165789728
 Zn         3.7308511000        8.0521615165       18.8594312206
 Cl         2.4973282868        9.2901964391       20.0838385621
 Zn         3.7308522790       18.8594263824        8.0521625286
 Cl         2.4973308922       20.0838350711        9.2901994919
 Zn        14.5320916426       14.7274069513        8.0080627168
 Cl        13.3034882089       13.4903272173        9.2396916100
 Zn        14.6026349006        3.8793119008       18.8769302984
 Cl        13.3910431423        2.6366303790       20.1210518448
 Zn         3.7377273090       14.7144366592       18.8544312128
 Cl         2.5108143623       13.4696735861       20.0796972581
 Zn         3.7338305557        3.9064931758        8.0535503300
 Cl         2.5040096499        2.6878817499        9.3009487743
 Zn         7.9010202899        7.9554103195        7.9554096280
 Cl         9.4068061002        9.0144792762        9.0144519976
 Zn         7.8497677847       18.9003747799       18.9003697935
 Cl         9.0153731067       20.1642268724       20.1642305121
 Zn        18.7048392670        8.0532820639       18.8346465224
 Cl        19.9421460684        9.2918736120       20.0564168183
 Zn        18.7048388846       18.8346463748        8.0532825072
 Cl        19.9421453480       20.0564177807        9.2918724780
 Zn        14.5320839905        8.0080626009       14.7274061709
 Cl        13.3034826342        9.2396958871       13.4903272943
 Zn        14.6026347305       18.8769296434        3.8793163773
 Cl        13.3910420344       20.1210469725        2.6366326585
 Zn         3.7338343362        8.0535496617        3.9064897676
 Cl         2.5040143420        9.3009455254        2.6878757994
 Zn         3.7377290494       18.8544337892       14.7144375673
 Cl         2.5108122206       20.0796959439       13.4696750898
 Zn         7.8984870073       14.7864421440       14.7864426776
 Cl         9.3856103846       13.7145520732       13.7145559522
 Zn         7.8369569297        3.8464386111        3.8464414185
 Cl         8.9850386095        2.5755946607        2.5755980605
 Zn        18.7086368621       14.7059456819        3.9017611797
 Cl        19.9469558377       13.4682110967        2.6802895722
 Zn        18.7086342077        3.9017633313       14.7059455219
 Cl        19.9469563749        2.6802932100       13.4682127894
 Zn         5.8038983494        5.9529642864       16.8180041233
 Zn        16.6289503256       16.7788640816       16.7788622601
 Zn        16.6291232164        5.9584992030        5.9585027397
 Zn         5.8039113511       16.8180037370        5.9529635759
 Zn         5.8005711902        5.9496043433        5.9496046962
 Zn        16.6286054434       16.7784520487        5.9595451392
 Zn         5.8116362333       16.8125365742       16.8125401548
 Zn        16.6285994850        5.9595463505       16.7784545921
  N         3.6251100371        5.9797176355       16.7843906223
  N        14.4475378369        5.9344498934        5.9344510865
  N        18.8197098198       16.7704497246       16.7704491086
  N         7.9974959249       16.8691318385        5.8931785929
  N        18.8156231235        5.9766545752        5.9766566905
  N         7.9974928852        5.8931735021       16.8691352481
  N         3.6251106446       16.7843894885        5.9797176608
  N        14.4511993350       16.8063277560       16.8063253892
  N        16.6555309676        3.7758677352        5.9657201745
  N        16.6181936120       14.5977271424       16.7808200730
  N        16.6534985608       18.9686893550       16.7812872240
  N        16.6152190565        8.1470637875        5.9596524893
  N         5.7843496302       18.9811114350        5.9645705601
  N         5.8135902370        8.1540353453       16.8072948396
  N         5.7888600240        3.7826499138       16.7979575227
  N         5.8288198519       14.6094184913        5.9716406187
  N         5.7888647267       16.7979570332        3.7826506260
  N         5.8288097424        5.9716491671       14.6094181504
  N        16.6534991375       16.7812904783       18.9686903790
  N        16.6152188990        5.9596515856        8.1470625952
  N         5.7843435768        5.9645692408       18.9811128071
  N         5.8135934401       16.8072920835        8.1540363500
  N        16.6555330510        5.9657144184        3.7758711325
  N        16.6181943471       16.7808196282       14.5977246007
  N         5.7812744674        3.7822974206        5.9640515194
  N         5.8232384515       14.6085934943       16.7952807307
  N        16.6540247828       18.9680326716        5.9710701396
  N        16.6146900676        8.1478246639       16.7782484259
  N         5.7926902490       18.9800387229       16.7953370389
  N         5.8214644719        8.1535319783        5.9615171940
  N        16.6539086815        3.7767407991       16.7849451095
  N        16.6186844272       14.5972837166        5.9583303935
  N         3.6278061428       16.7866363645       16.7866389631
  N        14.4486622135       16.8056062517        5.9370598710
  N        18.8174268361       16.7700130615        5.9768089860
  N         8.0006502833       16.8582142351       16.8582158508
  N        18.8174270528        5.9768103090       16.7700146910
  N         7.9956659926        5.8867312834        5.8867349174
  N         3.6231462287        5.9821372871        5.9821386038
  N        14.4486600495        5.9370614872       16.8056103689
  N        16.6540239259        5.9710688181       18.9680365286
  N        16.6146932480       16.7782458713        8.1478227849
  N        16.6539096031       16.7849446527        3.7767420032
  N        16.6186833275        5.9583322703       14.5972827510
  N         5.7812719798        5.9640491403        3.7822988295
  N         5.8232376631       16.7952779851       14.6085948550
  N         5.7926931259       16.7953374557       18.9800406216
  N         5.8214582990        5.9615281229        8.1535313333
  C        11.2109579338       15.7799123969       15.7799135284
  H        11.1906030302       15.0047642047       15.0047655744
  C        11.2376598942        4.8476283156        4.8476301392
  H        11.2535224135        4.0724927322        4.0724940752
  C         0.4041954620       15.7185986982        4.9191721852
  H         0.4061660350       14.9431564228        4.1435104828
  C         0.4041941862        4.9191716059       15.7186003890
  H         0.4061635053        4.1435109303       14.9431572213
  C        11.2078182907        6.9632232663       15.7811979810
  H        11.1867942193        7.7389955718       15.0067101021
  C        11.2411864961       17.9024849808        4.8552062571
  H        11.2587350589       18.6800189159        4.0825869227
  C         0.3993486133        7.0399448346        4.9228147855
  H         0.3986805245        7.8159540973        4.1476263915
  C         0.4037482461       17.8387605459       15.7214103533
  H         0.4032124096       18.6138828647       14.9453679131
  C        11.2078204466       15.7811938418        6.9632227008
  H        11.1867942087       15.0067054349        7.7389953813
  C        11.2411820323        4.8552066680       17.9024880440
  H        11.2587333253        4.0825862940       18.6800216803
  C         0.4037457706       15.7214092592       17.8387613336
  H         0.4032063945       14.9453671905       18.6138836583
  C         0.3993509879        4.9228142909        7.0399430246
  H         0.3986836433        4.1476241371        7.8159524342
  C        11.2085481482        6.9619744168        6.9619758060
  H        11.1892981073        7.7370697980        7.7370697803
  C        11.2435389724       17.8947145517       17.8947137000
  H        11.2602927079       18.6698784543       18.6698762180
  C         0.3984401638        7.0383161582       17.8340392556
  H         0.3953701994        7.8148033920       18.6086930360
  C         0.3984387722       17.8340370954        7.0383170039
  H         0.3953670351       18.6086910207        7.8148033887
  C        15.5440541922       11.3740841925       15.7295031357
  H        14.7618255361       11.3760397437       14.9607598436
  C        15.6083258985        0.5514015566        4.9037438523
  H        14.8406834335        0.5504077290        4.1201256773
  C         4.7593910872       11.3843580306        4.9301542913
  H         3.9768389484       11.3872686830        4.1612569247
  C         4.7476645688        0.5608340400       15.7140765441
  H         3.9815194318        0.5599913001       14.9294793399
  C        15.5457877066       11.3732663202        7.0105338366
  H        14.7635347505       11.3750088757        7.7793328796
  C        15.6074407467        0.5522475414       17.8485476210
  H        14.8391175843        0.5512190360       18.6314059738
  C         4.7541891696       11.3848318548       17.8407966691
  H         3.9721372881       11.3881444346       18.6099885731
  C         4.7397893148        0.5609774660        7.0483421906
  H         3.9742025461        0.5599561399        7.8335917191
  C         6.8952728448       11.3775334389       15.7515032021
  H         7.6899731294       11.3724002466       14.9968048208
  C         6.8274229278        0.5619712044        4.8992500114
  H         7.5899314691        0.5625932355        4.1102943582
  C        17.6832129650       11.3714424709        4.9150966698
  H        18.4660991969       11.3697912411        4.1469027271
  C        17.7034472190        0.5534543979       15.7102794329
  H        18.4715279147        0.5545400401       14.9274680545
  C         6.8995584804       11.3782091097        7.0188740947
  H         7.6912890759       11.3734424587        7.7761527814
  C         6.8375327738        0.5615297311       17.8606121781
  H         7.6012760291        0.5622260754       18.6483336315
  C        17.6815681224       11.3718183763       17.8250688968
  H        18.4644617302       11.3700780919       18.5933600167
  C        17.7025895117        0.5527865374        7.0437980066
  H        18.4701154063        0.5538413515        7.8270397774
  C        15.5440561005       15.7295022747       11.3740844197
  H        14.7618261536       14.9607587431       11.3760411403
  C        15.6083274454        4.9037402543        0.5514031894
  H        14.8406851849        4.1201209196        0.5504075128
  C         4.7476650480       15.7140764318        0.5608349975
  H         3.9815206482       14.9294805909        0.5599959794
  C         4.7593970377        4.9301477198       11.3843565887
  H         3.9768373765        4.1612587781       11.3872671463
  C         6.8952741667       15.7514998031       11.3775347640
  H         7.6899753963       14.9968028620       11.3724010504
  C         6.8274256422        4.8992507354        0.5619711325
  H         7.5899326555        4.1102965421        0.5625937382
  C        17.7034493436       15.7102828690        0.5534552135
  H        18.4715297004       14.9274718542        0.5545395500
  C        17.6832145782        4.9150999085       11.3714414732
  H        18.4661019047        4.1469053277       11.3697908924
  C        15.5457887301        7.0105362870       11.3732636715
  H        14.7635370658        7.7793345091       11.3750063609
  C        15.6074427584       17.8485519026        0.5522510539
  H        14.8391202705       18.6314108756        0.5512220917
  C         4.7397893162        7.0483410994        0.5609800518
  H         3.9741993345        7.8335904436        0.5599599679
  C         4.7541903357       17.8407923915       11.3848317819
  H         3.9721394642       18.6099852740       11.3881448729
  C         6.8995656087        7.0188662949       11.3782105873
  H         7.6912901313        7.7761522850       11.3734467420
  C         6.8375331788       17.8606114527        0.5615283712
  H         7.6012778485       18.6483341476        0.5622274046
  C        17.7025873021        7.0437972920        0.5527917368
  H        18.4701115812        7.8270404262        0.5538510574
  C        17.6815717542       17.8250668566       11.3718147639
  H        18.4644655368       18.5933564983       11.3700719099
 Xe         9.6622339783       11.3566721243       11.3566759086
