     409
 i =     259, E =     -964.4761473325
  N         2.6697852443        5.2344686152       16.0421451712
  C         1.3701037441        5.5047982708       16.3124732667
  N        13.4523717793        5.2095620488        5.2095627614
  C        12.1526779564        5.4798885428        5.4798899662
  N        19.3895049379       17.5415784354       16.0036038404
  C        20.6904482636       17.2712615413       16.2679169187
  N         8.5571025155       17.5665416069        5.2208910990
  C         9.8580310313       17.2962136933        5.4852151503
  N        19.3396353649        5.1959845233        6.7339597846
  C        20.6405781108        5.4602979370        6.4636428822
  N         8.5571013126        5.2208913695       17.5665409407
  C         9.8580295308        5.4852160983       17.2962145332
  N         2.6768812758       17.5801126661        6.7724373892
  C         1.3747338290       17.3157867930        6.5081111385
  N        13.5093347268       17.5551488896       17.5551487310
  C        12.2071744389       17.2908260542       17.2908253165
  N        15.6203049569        3.0316900794        5.2045552157
  C        15.8852478780        1.7301556788        5.4712695488
  N        15.6701696560       13.8392163437       16.0121690241
  C        15.9351146243       12.5376678723       16.2788857922
  N        15.6872984129       19.7229435735       17.5501294699
  C        15.9569958263       21.0232735699       17.2821945708
  N        15.6374258577        8.9154695266        6.7425158847
  C        15.9071385071       10.2157843150        6.4745662930
  N         6.3891675503       19.7443604679        5.2258983417
  C         6.1254721097       21.0459232306        5.4938263337
  N         6.3891704736        8.9368316492       16.0335712096
  C         6.1254600120       10.2383795298       16.3015132694
  N         6.3791399122        3.0530439196       17.5715609729
  C         6.1081947585        1.7527446943       17.3048530414
  N         6.3791461081       13.8606263529        6.7638901873
  C         6.1081975170       12.5603133332        6.4971800144
  N         4.8376255528       16.0371356208        3.0565969849
  C         5.1025685488       16.3038514579        1.7550622364
  N         4.8376236675        5.2294611189       13.8641777535
  C         5.1025650208        5.4961734341       12.5626291681
  N        17.2217152345       16.0086123714       19.7193964537
  C        16.9580206240       16.2765381855       21.0209595934
  N        17.1718460549        5.2009927650        8.9119268983
  C        16.9081403980        5.4689299279       10.2134753641
  N         4.8547483958        6.7674184215       19.7479061089
  C         5.1244473445        6.4994828127       21.0482359692
  N         4.8547494896       17.5750940801        8.9403794061
  C         5.1244577365       17.3071477936       10.2406947470
  N        17.1618202082        6.7389776815        3.0281389066
  C        16.8908762432        6.4722697149        1.7278380344
  N        17.2116894175       17.5465973172       13.8356599567
  C        16.9407468968       17.2798919360       12.5353458072
  N         4.8162397121        3.0566224757        6.7674618084
  C         5.0799482925        1.7550896232        6.4995214006
  N         4.8661085927       13.8641447667       17.5750804690
  C         5.1298146105       12.5625984181       17.3071420932
  N        17.2003276793       19.7194207610        6.7389323771
  C        16.9354009712       21.0209846790        6.4722324083
  N        17.2003267087        8.9118956923       17.5466068306
  C        16.9353889562       10.2134443528       17.2798977380
  N         4.8761357858       19.7478799027       16.0370946073
  C         5.1470666143       21.0482091338       16.3037881405
  N         4.8262673818        8.9404089928        5.2294759900
  C         5.0972082585       10.2407233277        5.4961809518
  N        17.1832043640        3.0281161565       16.0086565446
  C        16.9134944781        1.7278140014       16.2766026068
  N        17.1832057507       13.8356947428        5.2009795832
  C        16.9134981537       12.5353792329        5.4689251024
  N         2.6982677090       16.0421140409       17.5800867512
  C         1.3973538292       16.3124433377       17.3157608617
  N        13.4808581177       16.0172038664        6.7475093081
  C        12.1799314534       16.2875343441        6.4831808365
  N        19.3610207798       16.0036365643        5.1959615789
  C        20.6631973813       16.2679482174        5.4602723929
  N         8.5784832609       16.0285396081       16.0285393497
  C         9.8806455504       16.2928655215       16.2928656780
  N        19.3681171213        6.7339253737       17.5415996280
  C        20.6678262755        6.4636109717       17.2712870679
  N         8.5357119878        6.7588928778        6.7588926640
  C         9.8354060342        6.4885632243        6.4885640953
  N         2.6484008147        6.7724689000        5.2344954104
  C         1.3474864697        6.5081418158        5.5048242517
  N        13.4808577556        6.7475090583       16.0172041871
  C        12.1799301439        6.4831811454       16.2875344870
  N        15.6588158379        5.2045137374       19.7229735301
  C        15.9297465947        5.4712062080       21.0233020278
  N        15.6588131588       16.0121851180        8.9154440878
  C        15.9297582483       16.2788925312       10.2157573190
  N        15.6487907259       17.5501724884        3.0316573733
  C        15.9124985235       17.2822329242        1.7301248295
  N        15.6487862604        6.7425021996       13.8392417216
  C        15.9124944421        6.4745589921       12.5376949139
  N         6.3506574636        5.2259419376        3.0530793245
  C         6.0809459926        5.4938893199        1.7527779775
  N         6.4005309159       16.0335584505       13.8606038237
  C         6.1308173720       16.3015072609       12.5602887866
  N         6.4176471751       17.5715152990       19.7443277766
  C         6.1527206678       17.3048149835       21.0458917390
  N         6.3677832970        6.7638994621        8.9368547159
  C         6.1028404694        6.4971852478       10.2384033780
  N        19.3681189962       17.5416004941        6.7339249533
  C        20.6678278237       17.2712865869        6.4636108200
  N         8.5855852588       17.5665076544       17.5665063776
  C         9.8852791287       17.2961836007       17.2961818441
  N         2.6484000799        5.2344943961        6.7724696957
  C         1.3474862896        5.5048235753        6.5081431191
  N        13.4808536875        5.2095320111       17.5551799557
  C        12.1799270150        5.4798584833       17.2908567701
  N         2.6982677209       17.5800877111       16.0421136165
  C         1.3973539729       17.3157612914       16.3124426419
  N        13.4808552124       17.5551799784        5.2095319715
  C        12.1799283464       17.2908565413        5.4798586218
  N        19.3610190048        5.1959621866       16.0036375884
  C        20.6631953976        5.4602729360       16.2679482575
  N         8.5286172273        5.2209240848        5.2209243232
  C         9.8307787857        5.4852462200        5.4852465588
  N         6.4176470940       19.7443291134       17.5715151076
  C         6.1527198245       21.0458926571       17.3048150322
  N         6.3677828872        8.9368548187        6.7639007017
  C         6.1028406652       10.2384032690        6.4971858383
  N         6.3506578083        3.0530786816        5.2259435563
  C         6.0809462923        1.7527773163        5.4938907430
  N         6.4005302828       13.8606042631       16.0335573634
  C         6.1308171415       12.5602893825       16.3015073075
  N        15.6487891480        3.0316582398       17.5501720033
  C        15.9124971630        1.7301256980       17.2822334017
  N        15.6487856315       13.8392405678        6.7425018219
  C        15.9124947514       12.5376943857        6.4745588006
  N        15.6588168382       19.7229734586        5.2045127206
  C        15.9297478248       21.0233017193        5.4712055452
  N        15.6588124092        8.9154438020       16.0121853666
  C        15.9297576472       10.2157578809       16.2788923355
  N        17.2003260026        6.7389320667       19.7194201777
  C        16.9354002320        6.4722324221       21.0209843149
  N        17.2003274194       17.5466070332        8.9118950826
  C        16.9353899278       17.2798972034       10.2134438478
  N         4.8162402758        6.7674610172        3.0566231507
  C         5.0799486163        6.4995208194        1.7550898538
  N         4.8661083360       17.5750800807       13.8641441194
  C         5.1298151703       17.3071422589       12.5625977464
  N        17.1832061635       16.0086555402        3.0281149383
  C        16.9134958872       16.2766023764        1.7278130375
  N        17.1832048521        5.2009801523       13.8356958933
  C        16.9134971249        5.4689240385       12.5353803702
  N         4.8761350424       16.0370961484       19.7478798513
  C         5.1470673527       16.3037882174       21.0482086596
  N         4.8262673265        5.2294755457        8.9404093237
  C         5.0972083257        5.4961799421       10.2407235431
  N        17.2217150174       19.7193974050       16.0086113902
  C        16.9580203211       21.0209609711       16.2765383176
  N        17.1718463398        8.9119267414        5.2009930390
  C        16.9081414142       10.2134750889        5.4689312692
  N         4.8376232839        3.0565982763       16.0371377735
  C         5.1025669492        1.7550631269       16.3038519004
  N         4.8376236901       13.8641765737        5.2294603952
  C         5.1025659935       12.5626284583        5.4961737402
  N        17.1618200981        3.0281380882        6.7389786456
  C        16.8908750857        1.7278378045        6.4722713694
  N        17.2116892304       13.8356597171       17.5465969211
  C        16.9407464192       12.5353464283       17.2798914738
  N         4.8547492275       19.7479051999        6.7674184593
  C         5.1244476504       21.0482356292        6.4994828746
  N         4.8547485328        8.9403796693       17.5750931337
  C         5.1244570900       10.2406948476       17.3071478809
  N        19.3396346686        6.7339589608        5.1959849296
  C        20.6405780606        6.4636421767        5.4602987926
  N         8.5570976256        6.7588703454       16.0285636477
  C         9.8580259399        6.4885385410       16.2928913501
  N         2.6768801454        6.7724374468       17.5801125017
  C         1.3747329351        6.5081113112       17.3157871556
  N        13.4594698198        6.7475343573        6.7475345007
  C        12.1573099268        6.4832060506        6.4832071006
  N         2.6697857248       16.0421445411        5.2344679976
  C         1.3701049990       16.3124728535        5.5047983346
  N        13.5022429025       16.0171779681       16.0171775555
  C        12.2025490313       16.2875092511       16.2875078176
  N        19.3895053691       16.0036049496       17.5415780101
  C        20.6904481637       16.2679179283       17.2712611898
  N         8.5570997500       16.0285625282        6.7588704919
  C         9.8580277953       16.2928912340        6.4885386789
  N         6.3791423335       17.5715604541        3.0530435372
  C         6.1081964038       17.3048524338        1.7527440451
  N         6.3791444969        6.7638896753       13.8606279297
  C         6.1081976691        6.4971794685       12.5603141259
  N         6.3891659436        5.2258992443       19.7443598226
  C         6.1254714176        5.4938262903       21.0459226813
  N         6.3891719088       16.0335709361        8.9368319192
  C         6.1254608936       16.3015134876       10.2383792860
  N        15.6872982099       17.5501298770       19.7229441075
  C        15.9569970444       17.2821948087       21.0232736452
  N        15.6374261052        6.7425151641        8.9154689019
  C        15.9071378676        6.4745655149       10.2157843997
  N        15.6203055276        5.2045538551        3.0316909571
  C        15.8852480206        5.4712683448        1.7301563854
  N        15.6701696539       16.0121697826       13.8392154478
  C        15.9351144529       16.2788863049       12.5376671456
 Zn        14.3517022037       14.6978011393       14.6978005410
 Cl        13.1413538636       13.4957913106       13.4957905333
 Zn        14.3018103660        3.8901921643        3.8901931101
 Cl        13.0914881788        2.6881729315        2.6881739911
 Zn         3.5191637628       14.7227408363        3.9150993059
 Cl         2.3088061879       13.5207566761        2.7130797283
 Zn         3.5191626754        3.9150992540       14.7227410536
 Cl         2.3088047051        2.7130797540       13.5207570388
 Zn         7.7015583850        8.0782530543       14.7131278853
 Cl         8.9063492089        9.2802707057       13.5055514454
 Zn         7.7015944672       18.8859088770        3.9054506475
 Cl         8.9063538141       20.0879450606        2.6978713548
 Zn        18.4842204515        8.0533804929        3.8805447092
 Cl        19.6890302883        9.2553663442        2.6729648718
 Zn        18.5341010804       18.8609571214       14.6881176334
 Cl        19.7389044315       20.0629880649       13.4805788385
 Zn         7.7015590813       14.7131275225        8.0782530787
 Cl         8.9063502470       13.5055518532        9.2802705620
 Zn         7.7015929727        3.9054509223       18.8859085932
 Cl         8.9063516051        2.6978719623       20.0879452082
 Zn        18.5341006126       14.6881181540       18.8609558260
 Cl        19.7389037765       13.4805800993       20.0629870896
 Zn        18.4842202410        3.8805445855        8.0533811138
 Cl        19.6890292559        2.6729643265        9.2553670897
 Zn        14.3210894627        8.0629616887        8.0629618421
 Cl        13.1218597650        9.2705324553        9.2705325201
 Zn        14.3709122717       18.8705732767       18.8705730756
 Cl        13.1717197816       20.0781569397       20.0781554354
 Zn         3.5384077857        8.0879038647       18.8955250708
 Cl         2.3391735944        9.2954429312       20.1031140700
 Zn         3.5384086037       18.8955250744        8.0879036822
 Cl         2.3391744797       20.1031145943        9.2954423354
 Zn        14.3363971071       14.6978193500        8.0629452043
 Cl        13.1316074040       13.4958033052        9.2705217543
 Zn        14.3363609112        3.8901429883       18.8706012345
 Cl        13.1316032264        2.6881238280       20.0781964643
 Zn         3.5537142604       14.7226917039       18.8955079295
 Cl         2.3489210902       13.5207075301       20.1031034473
 Zn         3.5038569908        3.9151172646        8.0879321304
 Cl         2.2990579127        2.7130920701        9.2954834495
 Zn         7.6862503573        8.0782688067        8.0782692193
 Cl         8.8966006315        9.2802805789        9.2802804940
 Zn         7.7361660604       18.8858802586       18.8858793160
 Cl         8.9464780271       20.0879050388       20.0879035648
 Zn        18.5187915906        8.0533519273       18.8609726005
 Cl        19.7291542566        9.2553261381       20.0629971074
 Zn        18.5187929970       18.8609724944        8.0533516085
 Cl        19.7291555929       20.0629977268        9.2553254465
 Zn        14.3363960225        8.0629452779       14.6978192390
 Cl        13.1316066448        9.2705222620       13.4958029682
 Zn        14.3363624355       18.8706006673        3.8901427256
 Cl        13.1316053583       20.0781962584        2.6881229619
 Zn         3.5038577118        8.0879315524        3.9151179186
 Cl         2.2990588735        9.2954825684        2.7130919460
 Zn         3.5537146285       18.8955082004       14.7226908031
 Cl         2.3489219141       20.1031041942       13.5207062436
 Zn         7.7168668277       14.7131094512       14.7131090172
 Cl         8.9160984040       13.5055402874       13.5055396202
 Zn         7.6670214198        3.9055003341        3.9055015646
 Cl         8.8662267477        2.6979220423        2.6979227993
 Zn        18.4995287644       14.6881678112        3.8805263685
 Cl        19.6987789693       13.4806299143        2.6729531573
 Zn        18.4995276123        3.8805264887       14.6881686086
 Cl        19.6987771755        2.6729530638       13.4806304184
 Zn         5.6152025283        5.9967002168       16.8042857390
 Zn        16.4476638593       16.7793227223       16.7793223292
 Zn        16.3977957108        5.9717924138        5.9717934541
 Zn         5.6152037765       16.8042855801        5.9966997087
 Zn         5.5902694122        5.9967278171        5.9967285264
 Zn        16.4227301493       16.7793500612        5.9717646138
 Zn         5.6401373715       16.8042576644       16.8042572563
 Zn        16.4227293153        5.9717645449       16.7793508327
  N         3.4131028688        6.0017477411       16.8094223428
  N        14.1956851700        5.9768415589        5.9768419263
  N        18.6497471867       16.7742977968       16.7742975391
  N         7.8173325057       16.7992590816        5.9915871159
  N        18.5998790191        5.9666790096        5.9666804256
  N         7.8173312363        5.9915869863       16.7992599457
  N         3.4131042411       16.8094218678        6.0017466185
  N        14.2455546616       16.7844583773       16.7844570282
  N        16.3927696587        3.7696862045        5.9717638593
  N        16.4426371983       14.5772060846       16.7793817520
  N        16.4527994431       18.9814113310       16.7793737904
  N        16.4029290822        8.1739280458        5.9717566654
  N         5.6202515847       19.0063749008        5.9966608371
  N         5.6202519715        8.1988357566       16.8043351584
  N         5.6100897641        3.7945937364       16.8043474250
  N         5.6100911167       14.6021684764        5.9966728802
  N         5.6100895614       16.8043476413        3.7945930316
  N         5.6100891875        5.9966736271       14.6021693129
  N        16.4527993193       16.7793747907       18.9814111139
  N        16.4029297147        5.9717565091        8.1739284965
  N         5.6202495024        5.9966612173       19.0063753001
  N         5.6202527367       16.8043343652        8.1988353703
  N        16.3927697825        5.9717626203        3.7696871732
  N        16.4426372074       16.7793814589       14.5772058462
  N         5.5851555570        3.7946210096        5.9967013136
  N         5.6350249511       14.6021408578       16.8043175755
  N        16.4278661053       18.9814398527        5.9717232125
  N        16.4278639158        8.1739004204       16.7793989350
  N         5.6451859374       19.0063471327       16.8043067148
  N         5.5953186838        8.1988640002        5.9966898523
  N        16.4177039560        3.7696583785       16.7794146020
  N        16.4177037621       14.5772331399        5.9717405804
  N         3.4380376634       16.8093949863       16.8093940436
  N        14.2206200128       16.7844854020        5.9768133747
  N        18.6248141414       16.7743261010        5.9666503799
  N         7.8422661985       16.7992318373       16.7992311472
  N        18.6248127567        5.9666506429       16.7743260907
  N         7.7923984239        5.9916140561        5.9916160408
  N         3.3881687503        6.0017746083        6.0017758982
  N        14.2206191021        5.9768132799       16.7844870076
  N        16.4278633531        5.9717246930       18.9814402640
  N        16.4278641768       16.7793985113        8.1739001964
  N        16.4177051771       16.7794139065        3.7696578076
  N        16.4177024070        5.9717394891       14.5772341803
  N         5.5851567097        5.9967008134        3.7946215574
  N         5.6350255878       16.8043184674       14.6021404847
  N         5.6451838918       16.8043080248       19.0063464069
  N         5.5953162393        5.9966909401        8.1988641907
  C        11.0391085220       15.7508505567       15.7508498234
  H        11.0355691956       14.9838127391       14.9838120977
  C        10.9892394837        4.9432274515        4.9432283778
  H        10.9857003988        4.1761886121        4.1761895020
  C         0.2066419646       15.7758087973        4.9681336637
  H         0.2030574669       15.0087626433        4.2010868921
  C         0.2066402842        4.9681339608       15.7758090377
  H         0.2030561537        4.2010866222       15.0087630953
  C        11.0189786300        7.0251993356       15.7508735715
  H        11.0189775425        7.7922411892       14.9838316929
  C        11.0189804727       17.8328787980        4.9431935769
  H        11.0189788873       18.5999216718        4.1761506605
  C         0.1865125654        7.0501667360        4.9681571876
  H         0.1864659129        7.8172170175        4.2011057833
  C         0.2363814861       17.8577866030       15.7757745620
  H         0.2363346105       18.6248376159       15.0087243804
  C        11.0189803937       15.7508734671        7.0251989787
  H        11.0189787020       14.9838318127        7.7922403632
  C        11.0189788765        4.9431943475       17.8328790128
  H        11.0189773583        4.1761513745       18.5999214556
  C         0.2363812350       15.7757752582       17.8577856243
  H         0.2363343990       15.0087255711       18.6248367451
  C         0.1865123644        4.9681568424        7.0501674307
  H         0.1864656488        4.2011055093        7.8172171707
  C        10.9988465716        7.0252210157        7.0252212683
  H        11.0023862894        7.7922582627        7.7922588454
  C        11.0487154311       17.8328456266       17.8328448450
  H        11.0522551475       18.5998844685       18.5998831152
  C         0.2162479367        7.0501341176       17.8578077028
  H         0.2197421675        7.8171793938       18.6248555414
  C         0.2162490003       17.8578079521        7.0501337380
  H         0.2197435026       18.6248557419        7.8171790908
  C        15.3918555786       11.3779584700       15.7407955005
  H        14.6230480915       11.3797309919       14.9755257941
  C        15.3419827864        0.5704234776        4.9331738241
  H        14.5731675523        0.5721490096        4.1678947167
  C         4.5593031655       11.4029212856        4.9580798713
  H         3.7904942930       11.4046937809        4.1928087614
  C         4.5593013804        0.5953309452       15.7657548618
  H         3.7904844777        0.5970563966       15.0004761443
  C        15.3717264769       11.3779827393        7.0151449369
  H        14.6064579912       11.3797495743        7.7839528487
  C        15.3717195992        0.5703923350       17.8228249402
  H        14.6064434759        0.5721120782       18.5916430890
  C         4.5890397214       11.4028897220       17.8477311652
  H         3.8237707695       11.4046570220       18.6165417354
  C         4.5391716912        0.5953551636        7.0401136108
  H         3.7738938657        0.5970751012        7.8089310451
  C         6.6662302434       11.3980917409       15.7609269765
  H         7.4314988568       11.3963237108       14.9921178951
  C         6.6163664231        0.5905570987        4.9533051055
  H         7.3816426892        0.5887416142        4.1844862491
  C        17.4489164206       11.3731848247        4.9283406548
  H        18.2141861291       11.3714161895        4.1595293399
  C        17.4489153380        0.5655944735       15.7360158814
  H        18.2141929523        0.5637786431       14.9671974249
  C         6.6461001653       11.3981121865        7.0352762534
  H         7.4149069957       11.3963416677        7.8005466749
  C         6.6461035293        0.5905220347       17.8429566787
  H         7.4149189201        0.5887040956       18.6082358855
  C        17.4786531955       11.3731495055       17.8179930243
  H        18.2474616335       11.3713787769       18.5832645636
  C        17.4287845968        0.5656145496        7.0103750426
  H        18.1976012498        0.5637967196        7.7756542280
  C        15.3918563884       15.7407958932       11.3779573003
  H        14.6230490843       14.9755265338       11.3797303899
  C        15.3419821084        4.9331735683        0.5704239662
  H        14.5731680834        4.1678932308        0.5721499999
  C         4.5593021975       15.7657553460        0.5953304542
  H         3.7904868764       15.0004757073        0.5970564020
  C         4.5593018838        4.9580797611       11.4029217366
  H         3.7904934183        4.1928081225       11.4046942345
  C         6.6662312776       15.7609275167       11.3980912049
  H         7.4314990859       14.9921179257       11.3963233350
  C         6.6163660443        4.9533047160        0.5905574389
  H         7.3816424716        4.1844861762        0.5887419607
  C        17.4489161702       15.7360157372        0.5655934299
  H        18.2141938710       14.9671979267        0.5637778761
  C        17.4489161123        4.9283409434       11.3731851719
  H        18.2141852590        4.1595291499       11.3714168870
  C        15.3717248191        7.0151448260       11.3779825855
  H        14.6064570102        7.7839541109       11.3797496354
  C        15.3717211498       17.8228250147        0.5703919588
  H        14.6064452198       18.5916431718        0.5721124803
  C         4.5391710081        7.0401124791        0.5953556042
  H         3.7738942972        7.8089310019        0.5970765736
  C         4.5890406917       17.8477320353       11.4028891322
  H         3.8237713661       18.6165423277       11.4046560960
  C         6.6460991404        7.0352768827       11.3981124923
  H         7.4149071551        7.8005466383       11.3963420082
  C         6.6461049561       17.8429568180        0.5905214839
  H         7.4149213910       18.6082352435        0.5887037382
  C        17.4287843334        7.0103748481        0.5656143643
  H        18.1976024127        7.7756527011        0.5637973806
  C        17.4786543067       17.8179936621       11.3731484099
  H        18.2474632995       18.5832651616       11.3713781385
 Xe        21.2432731594       10.7839720054       10.7839720058
