     409
 i =     259, E =     -964.4949265907
  N         2.8809628398        5.2170152377       16.0193939754
  C         1.5798807837        5.4848000363       16.2849549295
  N        13.6973900504        5.1912634575        5.1912619571
  C        12.3930103473        5.4495492456        5.4495490754
  N        19.5698107096       17.5508106470       16.0129504376
  C        20.8706244731       17.2873811090       16.2840305595
  N         8.7745836321       17.6095325239        5.1699877574
  C        10.0726034382       17.3326929951        5.4414472526
  N        19.5646459520        5.2219226037        6.7597762361
  C        20.8654767599        5.4888612607        6.4922037303
  N         8.7745832150        5.1699876143       17.6095327544
  C        10.0726030232        5.4414472805       17.3326933466
  N         2.8794949587       17.5578712472        6.7544574397
  C         1.5789720549       17.2886390829        6.4876940490
  N        13.7015441587       17.5725901289       17.5725898992
  C        12.3970558805       17.3146275830       17.3146272456
  N        15.8773183417        3.0388995000        5.2082182167
  C        16.1436136999        1.7387311134        5.4781834852
  N        15.8444266312       13.8469733740       16.0185128735
  C        16.1126733159       12.5454424566       16.2830911071
  N        15.8800222643       19.7281402058       17.5572307007
  C        16.1459379878       21.0285413544       17.2877017289
  N        15.8373555652        8.9210419863        6.7471770757
  C        16.1060505787       10.2225211383        6.4825704225
  N         6.5713754500       19.7343389774        5.2107976181
  C         6.3058364963       21.0342692866        5.4823663493
  N         6.5894839158        8.9247972934       16.0305003623
  C         6.3216883011       10.2270130892       16.2923163454
  N         6.5768365526        3.0455701331       17.5668822418
  C         6.3129759510        1.7452108831       17.2956292524
  N         6.5984722287       13.8503335420        6.7600811494
  C         6.3279965080       12.5492680881        6.4965914674
  N         5.0510423770       16.0166973519        3.0456683574
  C         5.3174504086       16.2846680024        1.7449112001
  N         5.0565825290        5.2267528392       13.8514285650
  C         5.3218557076        5.4958741215       12.5503810436
  N        17.4068759105       16.0086286397       19.7272398413
  C        17.1424320206       16.2776375245       21.0284178328
  N        17.3846002231        5.2185152010        8.9225592899
  C        17.1153027824        5.4851637869       10.2229161031
  N         5.0454163920        6.7609364313       19.7323329008
  C         5.3105473867        6.4935804788       21.0334265575
  N         5.0472476162       17.5631003668        8.9290179268
  C         5.3154581128       17.2928844555       10.2291396026
  N        17.4034730882        6.7575015521        3.0408998861
  C        17.1394708691        6.4888669652        1.7395552582
  N        17.3927276064       17.5461914208       13.8449511784
  C        17.1225521405       17.2799227572       12.5446746871
  N         5.0433435785        3.0453381158        6.7616659640
  C         5.3094284576        1.7444598457        6.4939834485
  N         5.0516474987       13.8518079687       17.5598433194
  C         5.3175761347       12.5508817023       17.2912939386
  N        17.4037861025       19.7267093953        6.7588318056
  C        17.1396213912       21.0278515565        6.4894619818
  N        17.3897270708        8.9230451632       17.5475065736
  C        17.1210226232       10.2234483717       17.2805197103
  N         5.0528692436       19.7328317434       16.0183145777
  C         5.3184737055       21.0338713633       16.2855367929
  N         5.0526990728        8.9283695786        5.2221563672
  C         5.3200172106       10.2285256299        5.4936268250
  N        17.4056970727        3.0416354868       16.0090671387
  C        17.1418371060        1.7402587909       16.2777973536
  N        17.3878252507       13.8445066557        5.2208480438
  C        17.1169331183       12.5441964832        5.4862832869
  N         2.8828369345       16.0242865074       17.5622484576
  C         1.5820665031       16.2895234893       17.2927976742
  N        13.6797023084       16.0338741015        6.7305625242
  C        12.3826797187       16.3112633628        6.4544612201
  N        19.5676709723       16.0108319808        5.2212692526
  C        20.8683479496       16.2808597790        5.4866786472
  N         8.7578041400       16.0671023465       16.0671020303
  C        10.0625808355       16.3262310548       16.3262306769
  N        19.5665380734        6.7581982636       17.5496613195
  C        20.8675194098        6.4894737145       17.2847657221
  N         8.7553298415        6.6995022054        6.6995061172
  C        10.0597287197        6.4394001633        6.4394035395
  N         2.8778415658        6.7589795284        5.2209168465
  C         1.5770268352        6.4918862373        5.4885751563
  N        13.6797018513        6.7305628320       16.0338745927
  C        12.3826792606        6.4544615204       16.3112638812
  N        15.8781555098        5.2090388301       19.7276260523
  C        16.1439585662        5.4786031180       21.0279724570
  N        15.8415699842       16.0196902147        8.9218560508
  C        16.1112325934       16.2836456586       10.2232455188
  N        15.8782047662       17.5571303243        3.0396656986
  C        16.1451178885       17.2876566731        1.7394470634
  N        15.8404269604        6.7494808046       13.8463752944
  C        16.1076050521        6.4836772768       12.5448340100
  N         6.5682765383        5.2104208655        3.0446201924
  C         6.3042739751        5.4823558995        1.7444928360
  N         6.5930373827       16.0261013495       13.8512674719
  C         6.3233997836       16.2903094319       12.5499765935
  N         6.5797292906       17.5676039013       19.7346735894
  C         6.3144213902       17.2961366975       21.0347496635
  N         6.5956561131        6.7542968672        8.9242807927
  C         6.3266171909        6.4938762598       10.2263187974
  N        19.5665385219       17.5496611494        6.7581978734
  C        20.8675198472       17.2847655617        6.4894732939
  N         8.7770822888       17.6042345710       17.6042341957
  C        10.0749012116       17.3295375624       17.3295371606
  N         2.8778415773        5.2209163265        6.7589798149
  C         1.5770268376        5.4885746575        6.4918865878
  N        13.6992218003        5.1954118313       17.5747866933
  C        12.3947925429        5.4534675439       17.3164980443
  N         2.8828369530       17.5622486264       16.0242860790
  C         1.5820665146       17.2927979257       16.2895231009
  N        13.6992222045       17.5747864348        5.1954117274
  C        12.3947929721       17.3164976902        5.4534674096
  N        19.5676705222        5.2212695835       16.0108322543
  C        20.8683475072        5.4866790255       16.2808599888
  N         8.7725577911        5.1624885692        5.1624874402
  C        10.0707713893        5.4361305759        5.4361306614
  N         6.5797289632       19.7346736494       17.5676037673
  C         6.3144208992       21.0347497069       17.2961366686
  N         6.5956564018        8.9242798436        6.7542945575
  C         6.3266176440       10.2263180259        6.4938744863
  N         6.5682774167        3.0446204214        5.2104217454
  C         6.3042748296        1.7444930127        5.4823566152
  N         6.5930371494       13.8512678356       16.0261012786
  C         6.3233994760       12.5499769780       16.2903093542
  N        15.8782042557        3.0396657288       17.5571304713
  C        16.1451174148        1.7394471125       17.2876567409
  N        15.8404270671       13.8463749101        6.7494805473
  C        16.1076049314       12.5448336085        6.4836769295
  N        15.8781555683       19.7276259851        5.2090389235
  C        16.1439583716       21.0279723947        5.4786034645
  N        15.8415694541        8.9218563954       16.0196903207
  C        16.1112321525       10.2232458647       16.2836456545
  N        17.4037856636        6.7588320541       19.7267094568
  C        17.1396213369        6.4894618780       21.0278516198
  N        17.3897276327       17.5475064811        8.9230448313
  C        17.1210230739       17.2805197083       10.2234480358
  N         5.0433428674        6.7616652251        3.0453380710
  C         5.3094277093        6.4939828287        1.7444597868
  N         5.0516477742       17.5598434288       13.8518075343
  C         5.3175764720       17.2912940448       12.5508812759
  N        17.4056974598       16.0090668196        3.0416352899
  C        17.1418375061       16.2777972072        1.7402586289
  N        17.3878247451        5.2208479286       13.8445071983
  C        17.1169329496        5.4862833481       12.5441969859
  N         5.0528694900       16.0183147950       19.7328317312
  C         5.3184741558       16.2855368615       21.0338713446
  N         5.0526995809        5.2221578417        8.9283696951
  C         5.3200172429        5.4936281055       10.2285259021
  N        17.4068757309       19.7272400493       16.0086285322
  C        17.1424317288       21.0284180160       16.2776374701
  N        17.3845998511        8.9225587563        5.2185150321
  C        17.1153024694       10.2229155778        5.4851635620
  N         5.0510416125        3.0456683752       16.0166974911
  C         5.3174497069        1.7449112214       16.2846680973
  N         5.0565828929       13.8514284128        5.2267528869
  C         5.3218560414       12.5503807712        5.4958735858
  N        17.4034725641        3.0408998193        6.7575022203
  C        17.1394704161        1.7395551971        6.4888675346
  N        17.3927275356       13.8449515061       17.5461910893
  C        17.1225519266       12.5446750209       17.2799225437
  N         5.0454168356       19.7323329174        6.7609363434
  C         5.3105479761       21.0334266213        6.4935806839
  N         5.0472472631        8.9290183512       17.5631004294
  C         5.3154577280       10.2291400258       17.2928844547
  N        19.5646459664        6.7597759697        5.2219231302
  C        20.8654767647        6.4922033932        5.4888617590
  N         8.7563473841        6.7024652065       16.0679540846
  C        10.0609411781        6.4419583475       16.3266460614
  N         2.8794945223        6.7544578762       17.5578713597
  C         1.5789716106        6.4876944834       17.2886391964
  N        13.6783805756        6.7293018990        6.7293050176
  C        12.3813806949        6.4526670741        6.4526700258
  N         2.8809632884       16.0193938603        5.2170148657
  C         1.5798812341       16.2849547939        5.4847996338
  N        13.6813965496       16.0346197971       16.0346194766
  C        12.3843835428       16.3115134470       16.3115130745
  N        19.5698106978       16.0129508368       17.5508103181
  C        20.8706244642       16.2840309464       17.2873807845
  N         8.7563478405       16.0679534804        6.7024649500
  C        10.0609416203       16.3266454765        6.4419580856
  N         6.5768372706       17.5668821194        3.0455701130
  C         6.3129766489       17.2956291631        1.7452108514
  N         6.5984713255        6.7600816733       13.8503343865
  C         6.3279957856        6.4965923991       12.5492688256
  N         6.5713748554        5.2107975088       19.7343388064
  C         6.3058357950        5.4823660339       21.0342691164
  N         6.5894841308       16.0305001758        8.9247968802
  C         6.3216886203       16.2923162784       10.2270126905
  N        15.8800224738       17.5572308255       19.7281401740
  C        16.1459383109       17.2877018087       21.0285412859
  N        15.8373566565        6.7471779622        8.9210423914
  C        16.1060512991        6.4825710627       10.2225215717
  N        15.8773193563        5.2082170820        3.0388995342
  C        16.1436144447        5.4781826292        1.7387311618
  N        15.8444266988       16.0185132137       13.8469730221
  C        16.1126735237       16.2830913291       12.5454421093
 Zn        14.5195332176       14.7064375657       14.7064371889
 Cl        13.3363940378       13.4913032200       13.4913029109
 Zn        14.5639565220        3.8833769696        3.8833769352
 Cl        13.3690759545        2.6730031627        2.6730034583
 Zn         3.7369133051       14.7006818950        3.9025243381
 Cl         2.5426381137       13.4802729816        2.7034882841
 Zn         3.7369127185        3.9025244377       14.7006819785
 Cl         2.5426370366        2.7034888408       13.4802731383
 Zn         7.9120652005        8.0291029973       14.7595192887
 Cl         9.2685365185        9.1963744145       13.6914860708
 Zn         7.8937038991       18.9101492473        3.8706352210
 Cl         9.0408089339       20.1455944846        2.6412256936
 Zn        18.7101992308        8.0774543257        3.9049208369
 Cl        19.9233070389        9.2796002520        2.7054807840
 Zn        18.7148925629       18.8631352269       14.6908603783
 Cl        19.9300605980       20.0572885011       13.4853932026
 Zn         7.9120656259       14.7595186026        8.0291029966
 Cl         9.2685370994       13.6914881209        9.1963767200
 Zn         7.8937034267        3.8706349811       18.9101491943
 Cl         9.0408081354        2.6412253939       20.1455946665
 Zn        18.7148926634       14.6908606105       18.8631348123
 Cl        19.9300608972       13.4853932417       20.0572876929
 Zn        18.7101990825        3.9049206573        8.0774547604
 Cl        19.9233066902        2.7054803855        9.2796006804
 Zn        14.5153105236        8.0596164064        8.0596167538
 Cl        13.3269245659        9.2722160357        9.2722169390
 Zn        14.5666181672       18.8818318921       18.8818319176
 Cl        13.3729994765       20.0927200442       20.0927200779
 Zn         3.7272428712        8.0748183855       18.8773688147
 Cl         2.5254362749        9.2838022653       20.0807326875
 Zn         3.7272431099       18.8773687228        8.0748180643
 Cl         2.5254363854       20.0807327777        9.2838016541
 Zn        14.5176335400       14.7076761316        8.0624213795
 Cl        13.3319928243       13.4906409460        9.2732518882
 Zn        14.5646159375        3.8852878662       18.8822816468
 Cl        13.3687396947        2.6737796683       20.0904103582
 Zn         3.7338806047       14.7042842904       18.8785056815
 Cl         2.5361964067       13.4950103190       20.0857802497
 Zn         3.7303732474        3.9029813212        8.0778372922
 Cl         2.5317077946        2.7083472417        9.2981590671
 Zn         7.9149830569        8.0176428665        8.0176422320
 Cl         9.2793578069        9.1317513420        9.1317380468
 Zn         7.8994290857       18.9058987696       18.9058985499
 Cl         9.0575146196       20.1331587527       20.1331580450
 Zn        18.7119327779        8.0782175322       18.8647815390
 Cl        19.9255806794        9.2803654133       20.0636811926
 Zn        18.7119332818       18.8647814237        8.0782171574
 Cl        19.9255814843       20.0636810097        9.2803648087
 Zn        14.5176331735        8.0624214723       14.7076763588
 Cl        13.3319918760        9.2732513942       13.4906411423
 Zn        14.5646162575       18.8822814648        3.8852878354
 Cl        13.3687403155       20.0904100470        2.6737792123
 Zn         3.7303724624        8.0778368749        3.9029809126
 Cl         2.5317059014        9.2981573020        2.7083465691
 Zn         3.7338807201       18.8785056062       14.7042837608
 Cl         2.5361968721       20.0857801977       13.4950094540
 Zn         7.9093873511       14.7503169183       14.7503168067
 Cl         9.2590537075       13.6279538391       13.6279543131
 Zn         7.8874862517        3.8648731453        3.8648729198
 Cl         9.0231669058        2.6271172518        2.6271171300
 Zn        18.7128578352       14.6911273235        3.9072680527
 Cl        19.9273050136       13.4862320251        2.7118120812
 Zn        18.7128575766        3.9072681205       14.6911277305
 Cl        19.9273047947        2.7118120733       13.4862325500
 Zn         5.8195482189        5.9757423947       16.8048625368
 Zn        16.6289168519       16.7842536020       16.7842533360
 Zn        16.6241811598        5.9827091246        5.9827093899
 Zn         5.8195487741       16.8048622491        5.9757423346
 Zn         5.8167120087        5.9730129526        5.9730128995
 Zn        16.6263024717       16.7843206471        5.9840043232
 Zn         5.8226184814       16.8034164145       16.8034161921
 Zn        16.6263019913        5.9840045462       16.7843209228
  N         3.6200054756        5.9855639367       16.7895272666
  N        14.4275189633        5.9650887081        5.9650891681
  N        18.8301818932       16.7795519906       16.7795516227
  N         8.0255600431       16.8435999748        5.9337506886
  N        18.8250109951        5.9911658667        5.9911662526
  N         8.0255595794        5.9337506830       16.8436003577
  N         3.6200059080       16.7895271447        5.9855635463
  N        14.4311975085       16.7985578081       16.7985575801
  N        16.6396179516        3.7797677247        5.9825335219
  N        16.6189149500       14.5855800729       16.7827827697
  N        16.6429186936       18.9877962923       16.7830521354
  N        16.6111483179        8.1821069609        5.9824217590
  N         5.8080758552       18.9940430129        5.9842120417
  N         5.8188169277        8.1869060585       16.7997598314
  N         5.8128395280        3.7850254603       16.7932894153
  N         5.8293821496       14.5909946828        5.9909835657
  N         5.8128402865       16.7932892622        3.7850254195
  N         5.8293814581        5.9909835283       14.5909951840
  N        16.6429188245       16.7830522722       18.9877961676
  N        16.6111491073        5.9824223004        8.1821074220
  N         5.8080754004        5.9842121637       18.9940429134
  N         5.8188171819       16.7997596570        8.1869056724
  N        16.6396187610        5.9825325575        3.7797677882
  N        16.6189149421       16.7827831700       14.5855797342
  N         5.8048217476        3.7843660351        5.9842777974
  N         5.8238358747       14.5916530503       16.7948332318
  N        16.6403860813       18.9872544239        5.9839140130
  N        16.6152849273        8.1827627367       16.7843894615
  N         5.8157997044       18.9943642683       16.7946232151
  N         5.8251438589        8.1862258408        5.9843494591
  N        16.6409921983        3.7805425822       16.7832792905
  N        16.6150460662       14.5850933396        5.9853775588
  N         3.6226901764       16.7942362037       16.7942359149
  N        14.4291596873       16.7993475485        5.9678160271
  N        18.8274453950       16.7786415050        5.9908233554
  N         8.0275779898       16.8395935171       16.8395932067
  N        18.8274449591        5.9908236921       16.7786417489
  N         8.0239015835        5.9275870600        5.9275881509
  N         3.6176317607        5.9898080925        5.9898084828
  N        14.4291592330        5.9678162154       16.7993478885
  N        16.6403856613        5.9839142580       18.9872545102
  N        16.6152855224       16.7843893134        8.1827623883
  N        16.6409926471       16.7832789837        3.7805424762
  N        16.6150456213        5.9853775606       14.5850937856
  N         5.8048209996        5.9842769398        3.7843659026
  N         5.8238360855       16.7948333103       14.5916526610
  N         5.8157998840       16.7946234728       18.9943642219
  N         5.8251441723        5.9843514858        8.1862263490
  C        11.2171334328       15.7800130504       15.7800126562
  H        11.2093778654       15.0133073999       15.0133070038
  C        11.2380641693        4.9032645185        4.9032627908
  H        11.2469156709        4.1361496436        4.1361453765
  C         0.4196428709       15.7433420753        4.9463848433
  H         0.4203961601       14.9761196889        4.1795113689
  C         0.4196424053        4.9463852253       15.7433422701
  H         0.4203956796        4.1795117166       14.9761199092
  C        11.2158412178        6.9853515364       15.7784779452
  H        11.2088069373        7.7504048257       15.0101746493
  C        11.2401856726       17.8653028331        4.9091053021
  H        11.2495752224       18.6343418129        4.1439385852
  C         0.4162526439        7.0314646319        4.9492543309
  H         0.4161965890        7.7983336057        4.1820286677
  C         0.4213673842       17.8298100556       15.7475638959
  H         0.4214438096       18.5970688915       14.9807299808
  C        11.2158416838       15.7784772527        6.9853511305
  H        11.2088074497       15.0101738094        7.7504042599
  C        11.2401852802        4.9091052951       17.8653030859
  H        11.2495748495        4.1439384206       18.6343419225
  C         0.4213673578       15.7475643348       17.8298098163
  H         0.4214437580       14.9807304860       18.5970687167
  C         0.4162526421        4.9492537412        7.0314648906
  H         0.4161965891        4.1820279630        7.7983337506
  C        11.2149554005        6.9847935311        6.9847987087
  H        11.2086124473        7.7514273692        7.7514351096
  C        11.2428521613       17.8615864563       17.8615860641
  H        11.2528291736       18.6286766586       18.6286762511
  C         0.4177622699        7.0276297154       17.8265471069
  H         0.4169956380        7.7941018403       18.5941814616
  C         0.4177627110       17.8265469966        7.0276292694
  H         0.4169960637       18.5941813673        7.7941013672
  C        15.5695988345       11.3845420245       15.7470420428
  H        14.7984693101       11.3848408089       14.9841235019
  C        15.6081951657        0.5781677638        4.9348888179
  H        14.8466027301        0.5778643534        4.1624197750
  C         4.7798124014       11.3903998988        4.9574856683
  H         4.0114997236       11.3916920162        4.1917004346
  C         4.7826341086        0.5839829628       15.7411860329
  H         4.0210886963        0.5833599780       14.9687212560
  C        15.5644758221       11.3837705515        7.0194167021
  H        14.7935701023       11.3839252141        7.7825550729
  C        15.6095786097        0.5788087417       17.8307221134
  H        14.8473899625        0.5785243730       18.6025856891
  C         4.7758574859       11.3908581493       17.8300025624
  H         4.0081001325       11.3920625317       18.5963785635
  C         4.7750062623        0.5836069091        7.0381432334
  H         4.0140180232        0.5831328430        7.8111832171
  C         6.8629073809       11.3876891043       15.7529704654
  H         7.6337764630       11.3865061163       14.9898233415
  C         6.8405433530        0.5847015672        4.9387420745
  H         7.6007465966        0.5851848764        4.1649636090
  C        17.6586482338       11.3834353675        4.9494455609
  H        18.4304379778       11.3832537812        4.1871260534
  C        17.6782471234        0.5795096045       15.7348385373
  H        18.4403807430        0.5797706320       14.9628911511
  C         6.8674878408       11.3869049552        7.0338637148
  H         7.6379726595       11.3855132881        7.7974695531
  C         6.8496076326        0.5854083256       17.8391077449
  H         7.6105569785        0.5860108153       18.6122017097
  C        17.6648935911       11.3838483284       17.8159634550
  H        18.4371465120       11.3835156428       18.5778203376
  C        17.6751609565        0.5788793012        7.0325750342
  H        18.4365463377        0.5791274387        7.8052339583
  C        15.5695991611       15.7470421592       11.3845416785
  H        14.7984696312       14.9841236255       11.3848404515
  C        15.6081957918        4.9348880525        0.5781678238
  H        14.8466035476        4.1624188215        0.5778644355
  C         4.7826346974       15.7411860146        0.5839829641
  H         4.0210892779       14.9687212417        0.5833600068
  C         4.7798124717        4.9574863638       11.3903999143
  H         4.0115001191        4.1917007981       11.3916916958
  C         6.8629076875       15.7529704755       11.3876887474
  H         7.6337767658       14.9898233448       11.3865058167
  C         6.8405425145        4.9387414711        0.5847013424
  H         7.6007456667        4.1649629372        0.5851845699
  C        17.6782474614       15.7348384754        0.5795093570
  H        18.4403810462       14.9628910667        0.5797702825
  C        17.6586481082        4.9494455166       11.3834359571
  H        18.4304375816        4.1871257154       11.3832544780
  C        15.5644764300        7.0194173743       11.3837709022
  H        14.7935709310        7.7825559868       11.3839254495
  C        15.6095790500       17.8307221639        0.5788087463
  H        14.8473904551       18.6025857769        0.5785244801
  C         4.7750056262        7.0381428786        0.5836069110
  H         4.0140174812        7.8111829367        0.5831329191
  C         4.7758578929       17.8300026562       11.3908576859
  H         4.0081005804       18.5963787025       11.3920620143
  C         6.8674869908        7.0338653424       11.3869059474
  H         7.6379714320        7.7974715738       11.3855146665
  C         6.8496082557       17.8391076829        0.5854082718
  H         7.6105576327       18.6122016225        0.5860107279
  C        17.6751610267        7.0325748335        0.5788793532
  H        18.4365461926        7.8052339686        0.5791274776
  C        17.6648939349       17.8159635499       11.3838480028
  H        18.4371468666       18.5778204222       11.3835153179
 Xe        10.5342777546       11.3793644673       11.3793651436
