     409
 i =     232, E =     -965.0948555524
  N         2.8030371255        5.2274609668       16.0351375230
  C         1.5029102653        5.4967177133       16.3043927094
  N        13.5945778177        5.2114577785        5.2114584916
  C        12.2944386380        5.4807113533        5.4807127772
  N        19.5126192559       17.5483666513       16.0103920557
  C        20.8135666508       17.2791235257       16.2757789024
  N         8.6891033933       17.5643926896        5.2187421816
  C         9.9900359784       17.2951385322        5.4841399892
  N        19.4805903997        5.2027389402        6.7407142019
  C        20.7815372144        5.4681261220        6.4714710675
  N         8.6891021910        5.2187424517       17.5643920229
  C         9.9900344765        5.4841409365       17.2951393714
  N         2.8075943504       17.5731098265        6.7654345497
  C         1.5058841270       17.3077093731        6.5000337188
  N        13.6311612432       17.5570832253       17.5570830662
  C        12.3294381739       17.2916857991       17.2916850609
  N        15.7643112132        3.0353759111        5.2082410479
  C        16.0301080687        1.7340605403        5.4751744109
  N        15.7963352764       13.8429359704       16.0158886504
  C        16.0621341887       12.5416065305       16.2828244501
  N        15.8073383442       19.7266748099       17.5538607056
  C        16.0761834605       21.0272270563       17.2861480564
  N        15.7753063816        8.9191669616        6.7462133199
  C        16.0441667585       10.2197040125        6.4784859907
  N         6.5193682544       19.7404214471        5.2219593209
  C         6.2543775745       21.0417660276        5.4896691306
  N         6.5193710589        8.9328926312       16.0296321916
  C         6.2543653587       10.2342223172       16.2973560567
  N         6.5129274186        3.0490981030       17.5676151565
  C         6.2432758184        1.7485757801       17.3006841274
  N         6.5129336872       13.8566805409        6.7599443756
  C         6.2432786628       12.5561444208        6.4930111022
  N         4.9726776532       16.0319179972        3.0513793615
  C         5.2384745827       16.2988528641        1.7500636429
  N         4.9726758454        5.2242434943       13.8589601291
  C         5.2384711464        5.4911748379       12.5576305722
  N        17.3430293783       16.0136106038       19.7243946856
  C        17.0780395301       16.2813182364       21.0257396436
  N        17.3110007926        5.2059571988        8.9168913324
  C        17.0459999007        5.4736761710       10.2182216074
  N         4.9836748864        6.7622124034       19.7427000908
  C         5.2525215386        6.4944990459       21.0432522023
  N         4.9836758570       17.5698880624        8.9351733883
  C         5.2525318284       17.3021640349       10.2357109881
  N        17.3045618710        6.7439353202        3.0330965458
  C        17.0349114609        6.4770042569        1.7325725770
  N        17.3365904439       17.5515887547       13.8406513936
  C        17.0669414870       17.2846602779       12.5401141487
  N         4.9589427656        3.0513903584        6.7622296917
  C         5.2239465708        1.7500756990        6.4945074771
  N         4.9909710096       13.8589464478       17.5698821498
  C         5.2559722616       12.5576182903       17.3021619651
  N        17.3292927821       19.7244044976        6.7439161135
  C        17.0635121033       21.0257493992        6.4769971281
  N        17.3292916883        8.9168794285       17.5515905666
  C        17.0634999853       10.2182090635       17.2846624484
  N         4.9974113218       19.7426883796       16.0319030838
  C         5.2670485840       21.0432406966       16.2988197028
  N         4.9653835120        8.9351836717        5.2242506694
  C         5.2350308251       10.2357211008        5.4911787253
  N        17.3182950675        3.0330882883       16.0136286765
  C        17.0494374466        1.7325638731       16.2813524786
  N        17.3182965353       13.8406668753        5.2059517158
  C        17.0494412147       12.5401291071        5.4736749767
  N         2.8213298287       16.0351256961       17.5730984061
  C         1.5204118800       16.3043812487       17.3076987724
  N        13.6128743934       16.0191189030        6.7494243446
  C        12.3119436615       16.2883756259        6.4840221183
  N        19.4943248569       16.0104054747        5.2027304893
  C        20.7960642594       16.2757917322        5.4681159076
  N         8.7028331875       16.0264051809       16.0264049222
  C        10.0045582535       16.2918056868       16.2918058429
  N        19.4988823998        6.7406990941       17.5483733482
  C        20.7990368887        6.4714576241       17.2791337200
  N         8.6753638178        6.7567294628        6.7567292494
  C         9.9755032247        6.4874727287        6.4874736001
  N         2.7893036498        6.7654467585        5.2274732694
  C         1.4883852373        6.5000459297        5.4967283662
  N        13.6128740313        6.7494240950       16.0191192237
  C        12.3119423517        6.4840224266       16.2883757681
  N        15.7890455298        5.2082256703       19.7266854628
  C        16.0586827218        5.4751412268       21.0272370463
  N        15.7890427334       16.0158970481        8.9191560178
  C        16.0586942583       16.2828275590       10.2196923465
  N        15.7826072225       17.5538776263        3.0353625112
  C        16.0476102440       17.2861562546        1.7340481599
  N        15.7826028282        6.7462073343       13.8429468564
  C        16.0476062484        6.4784823196       12.5416182415
  N         6.4946347285        5.2219768169        3.0491142044
  C         6.2257755207        5.4897019376        1.7485905960
  N         6.5266675441       16.0296271319       13.8566725049
  C         6.2578062735       16.2973536791       12.5561352045
  N         6.5376581200       17.5675955801       19.7404080571
  C         6.2718776424       17.3006762483       21.0417530032
  N         6.5056348355        6.7599459489        8.9329012030
  C         6.2398380617        6.4930127048       10.2342308354
  N        19.4988842742       17.5483742156        6.7406986746
  C        20.7990384373       17.2791332400        6.4714574730
  N         8.7073963798       17.5643780414       17.5643767640
  C        10.0075356023       17.2951269070       17.2951251498
  N         2.7893029153        5.2274722540        6.7654475542
  C         1.4883850567        5.4967276891        6.5000472335
  N        13.6128699644        5.2114470445       17.5570949890
  C        12.3119392232        5.4806997619       17.2916980487
  N         2.8213298401       17.5730993663       16.0351252714
  C         1.5204120239       17.3076992026       16.3043805527
  N        13.6128714891       17.5570950125        5.2114470055
  C        12.3119405545       17.2916978205        5.4806999010
  N        19.4943230807        5.2027310961       16.0104064978
  C        20.7960622754        5.4681164496       16.2757917709
  N         8.6708078645        5.2187558615        5.2187561005
  C         9.9725322058        5.4841525887        5.4841529280
  N         6.5376580380       19.7404093943       17.5675953879
  C         6.2718767982       21.0417539211       17.3006762955
  N         6.5056344247        8.9329013050        6.7599471884
  C         6.2398382571       10.2342307261        6.4930132957
  N         6.4946350725        3.0491135612        5.2219784367
  C         6.2257758198        1.7485899343        5.4897033618
  N         6.5266669116       13.8566729441       16.0296260442
  C         6.2578060426       12.5561358006       16.2973537254
  N        15.7826056446        3.0353633770       17.5538771406
  C        16.0476088826        1.7340490279       17.2861567317
  N        15.7826022004       13.8429457017        6.7462069558
  C        16.0476065582       12.5416177131        6.4784821281
  N        15.7890465308       19.7266853917        5.2082246535
  C        16.0586839523       21.0272367384        5.4751405640
  N        15.7890419840        8.9191557318       16.0158972962
  C        16.0586936569       10.2196929085       16.2828273629
  N        17.3292911063        6.7439158025       19.7244039132
  C        17.0635113646        6.4769971423       21.0257490348
  N        17.3292923992       17.5515907696        8.9168788188
  C        17.0635009577       17.2846619145       10.2182085587
  N         4.9589433293        6.7622289001        3.0513910344
  C         5.2239468948        6.4945068953        1.7500759304
  N         4.9909707537       17.5698817615       13.8589457998
  C         5.2559728217       17.3021621313       12.5576176185
  N        17.3182968686       16.0136276730        3.0330870711
  C        17.0494388564       16.2813522485        1.7325629097
  N        17.3182956353        5.2059522845       13.8406680256
  C        17.0494401859        5.4736739122       12.5401302440
  N         4.9974105772       16.0319046249       19.7426883273
  C         5.2670493227       16.2988197810       21.0432402226
  N         4.9653834568        5.2242502247        8.9351840032
  C         5.2350308931        5.4911777154       10.2357213168
  N        17.3430291612       19.7243956372       16.0136096217
  C        17.0780392258       21.0257410215       16.2813183674
  N        17.3110010773        8.9168911753        5.2059574732
  C        17.0460009160       10.2182213327        5.4736775132
  N         4.9726753816        3.0513806514       16.0319201489
  C         5.2384729821        1.7500645324       16.2988533062
  N         4.9726758695       13.8589589487        5.2242427704
  C         5.2384721194       12.5576298626        5.4911751448
  N        17.3045617608        3.0330957270        6.7439362849
  C        17.0349103023        1.7325723458        6.4770059112
  N        17.3365902574       13.8406511545       17.5515883581
  C        17.0669410093       12.5401147700       17.2846598151
  N         4.9836757185       19.7426991820        6.7622124413
  C         5.2525218445       21.0432518621        6.4944991073
  N         4.9836749009        8.9351736512       17.5698871156
  C         5.2525311817       10.2357110886       17.3021641218
  N        19.4805897037        6.7407133771        5.2027393463
  C        20.7815371640        6.4714703616        5.4681269778
  N         8.6890985025        6.7567214245       16.0264147268
  C         9.9900308862        6.4874633762       16.2918161853
  N         2.8075932202        6.7654346068       17.5731096617
  C         1.5058832328        6.5000338911       17.3077097356
  N        13.5991370452        6.7494348979        6.7494350417
  C        12.2974143787        6.4840320008        6.4840330511
  N         2.8030376070       16.0351368927        5.2274603494
  C         1.5029115203       16.3043922966        5.4967177779
  N        13.6266082302       16.0191074981       16.0191070850
  C        12.3264689958       16.2883658618       16.2883644278
  N        19.5126196866       16.0103931659       17.5483662258
  C        20.8135665504       16.2757799126       17.2791231735
  N         8.6891006276       16.0264136087        6.7567215723
  C         9.9900327414       16.2918160703        6.4874635152
  N         6.5129298403       17.5676146389        3.0490977222
  C         6.2432774645       17.3006835202        1.7485751318
  N         6.5129320753        6.7599438624       13.8566821169
  C         6.2432788148        6.4930105565       12.5561452141
  N         6.5193666477        5.2219602228       19.7404208011
  C         6.2543768831        5.4896690874       21.0417654783
  N         6.5193724940       16.0296319191        8.9328929021
  C         6.2543662403       16.2973562754       10.2342220737
  N        15.8073381405       17.5538611134       19.7266753432
  C        16.0761846784       17.2861482962       21.0272271320
  N        15.7753066302        6.7462125993        8.9191663374
  C        16.0441661197        6.4784852119       10.2197040970
  N        15.7643117842        5.2082396872        3.0353767898
  C        16.0301082117        5.4751732063        1.7340612475
  N        15.7963352744       16.0158894092       13.8429350740
  C        16.0621340174       16.2828249628       12.5416058032
 Zn        14.4782449148       14.7004326908       14.7004320921
 Cl        13.2698816179       13.4974246893       13.4974239117
 Zn        14.4461937761        3.8927898984        3.8927908448
 Cl        13.2378566472        2.6897725144        2.6897735747
 Zn         3.6545930438       14.7164351423        3.9087936122
 Cl         2.4462204986       13.5134528017        2.7057758543
 Zn         3.6545919564        3.9087935596       14.7164353594
 Cl         2.4462190157        2.7057758788       13.5134531641
 Zn         7.8335565871        8.0753979910       14.7102728221
 Cl         9.0383511782        9.2784100489       13.5036907886
 Zn         7.8335926867       18.8830538431        3.9025956136
 Cl         9.0383557880       20.0860844071        2.6960107013
 Zn        18.6251727831        8.0594288701        3.8865930867
 Cl        19.8299864163        9.2624091435        2.6800076714
 Zn        18.6572127684       18.8670393067       14.6941998181
 Cl        19.8620198448       20.0700646669       13.4876554399
 Zn         7.8335572835       14.7102724595        8.0753980158
 Cl         9.0383522160       13.5036911970        9.2784099058
 Zn         7.8335911925        3.9025958878       18.8830535587
 Cl         9.0383535787        2.6960113077       20.0860845537
 Zn        18.6572123013       14.6942003391       18.8670380105
 Cl        19.8620191896       13.4876567011       20.0700636908
 Zn        18.6251725724        3.8865929626        8.0594294913
 Cl        19.8299853838        2.6800071252        9.2624098888
 Zn        14.4585846588        8.0655724928        8.0655726465
 Cl        13.2573623801        9.2721526223        9.2721526872
 Zn        14.4905667636       18.8732178412       18.8732176393
 Cl        13.2893816723       20.0798108978       20.0798093926
 Zn         3.6669488112        8.0816112122       18.8892324182
 Cl         2.4657220499        9.2881596378       20.0958307764
 Zn         3.6669496291       18.8892324221        8.0816110298
 Cl         2.4657229351       20.0958313012        9.2881590421
 Zn        14.4684160591       14.7004405287        8.0655663829
 Cl        13.2636225873       13.4974300784        9.2721485275
 Zn        14.4683798802        3.8927641376       18.8732223838
 Cl        13.2636184138        2.6897505982       20.0798232345
 Zn         3.6767790998       14.7164094250       18.8892256503
 Cl         2.4719821189       13.5134308428       20.0958267597
 Zn         3.6447624744        3.9088011969        8.0816160632
 Cl         2.4399596560        2.7057815892        9.2881729692
 Zn         7.8237248049        8.0754033683        8.0754037812
 Cl         9.0320900334        9.2784133148        9.2784132301
 Zn         7.8557998049       18.8830486572       18.8830477140
 Cl         9.0641267044       20.0860715801       20.0860701054
 Zn        18.6473794479        8.0594237367       18.8670444095
 Cl        19.8557570882        9.2623961321       20.0700671010
 Zn        18.6473808544       18.8670443045        8.0594234182
 Cl        19.8557584244       20.0700677213        9.2623954406
 Zn        14.4684149746        8.0655664560       14.7004404170
 Cl        13.2636218280        9.2721490348       13.4974297410
 Zn        14.4683814049       18.8732218172        3.8927638755
 Cl        13.2636205463       20.0798230296        2.6897497331
 Zn         3.6447631953        8.0816154851        3.9088018519
 Cl         2.4399606175        9.2881720880        2.7057814662
 Zn         3.6767794683       18.8892259217       14.7164085240
 Cl         2.4719829432       20.0958275073       13.5134295564
 Zn         7.8433887884       14.7102647632       14.7102643289
 Cl         9.0446129434       13.5036862381       13.5036855707
 Zn         7.8113840796        3.9026218671        3.9026230982
 Cl         9.0125820014        2.6960341923        2.6960349501
 Zn        18.6350049114       14.6942265635        3.8865851209
 Cl        19.8362476723       13.4876793207        2.6800025639
 Zn        18.6350037587        3.8865852406       14.6942273605
 Cl        19.8362458784        2.6800024692       13.4876798240
 Zn         5.7471942239        5.9921231238       16.7997086461
 Zn        16.5707690696       16.7836828108       16.7836824171
 Zn        16.5387414902        5.9761187044        5.9761197451
 Zn         5.7471954725       16.7997084877        5.9921226164
 Zn         5.7311813923        5.9921338258        5.9921345356
 Zn        16.5547556447       16.7836932508        5.9761078033
 Zn         5.7632087830       16.7996974708       16.7996970622
 Zn        16.5547548103        5.9761077343       16.7836940220
  N         3.5450876589        5.9953530860       16.8030276879
  N        14.3366241153        5.9793502785        5.9793506463
  N        18.7728591916       16.7804754338       16.7804751755
  N         7.9493310701       16.7964995753        5.9888276096
  N        18.7408317390        5.9728228488        5.9728242651
  N         7.9493298002        5.9888274794       16.7965004388
  N         3.5450890323       16.8030272135        5.9953519643
  N        14.3686528952       16.7870008957       16.7869995461
  N        16.5355330300        3.7740090968        5.9760867521
  N        16.5675599356       14.5815627743       16.7837384411
  N        16.5740870579       18.9857749081       16.7837373668
  N        16.5420573002        8.1782578233        5.9760864432
  N         5.7504257593       19.0018012246        5.9920871610
  N         5.7504260346        8.1942620812       16.7997614830
  N         5.7438989766        3.7900131735       16.7997668623
  N         5.7439004114       14.5975879143        5.9920923182
  N         5.7438987740       16.7997670778        3.7900124682
  N         5.7438984810        5.9920930637       14.5975887496
  N        16.5740869335       16.7837383678       18.9857746903
  N        16.5420579324        5.9760862872        8.1782582749
  N         5.7504236765        5.9920875400       19.0018016228
  N         5.7504268007       16.7997606901        8.1942616951
  N        16.5355331539        5.9760855127        3.7740100660
  N        16.5675599451       16.7837381484       14.5815625353
  N         5.7278851276        3.7900235475        5.9921038522
  N         5.7599138891       14.5975771946       16.7997539120
  N        16.5580740810       18.9857865313        5.9760698909
  N        16.5580717791        8.1782470976       16.7837456121
  N         5.7664397544       19.0017903559       16.7997499375
  N         5.7344131037        8.1942734264        5.9920992789
  N        16.5515469658        3.7739981701       16.7837543936
  N        16.5515468536       14.5815729310        5.9760803715
  N         3.5611020951       16.8030172305       16.8030162875
  N        14.3526386027       16.7870110209        5.9793389935
  N        18.7568465044       16.7804868397        5.9728111184
  N         7.9653444065       16.7964892297       16.7964885392
  N        18.7568451197        5.9728113809       16.7804868286
  N         7.9333173443        5.9888376511        5.9888396363
  N         3.5290738991        5.9953630541        5.9953643446
  N        14.3526376909        5.9793388985       16.7870126261
  N        16.5580713274        5.9760713699       18.9857869407
  N        16.5580720405       16.7837451883        8.1782468733
  N        16.5515481878       16.7837536986        3.7739975997
  N        16.5515454987        5.9760792794       14.5815739706
  N         5.7278862802        5.9921033522        3.7900240969
  N         5.7599145253       16.7997548046       14.5975768216
  N         5.7664377084       16.7997512465       19.0017896281
  N         5.7344106581        5.9921003643        8.1942736153
  C        11.1639151681       15.7507472579       15.7507465242
  H        11.1616420321       14.9837070416       14.9837063998
  C        11.1318868519        4.9430903542        4.9430912811
  H        11.1296139593        4.1760491162        4.1760500068
  C         0.3403351774       15.7667683123        4.9590931790
  H         0.3380168845       14.9997197223        4.1920439715
  C         0.3403334967        4.9590934750       15.7667685521
  H         0.3380155714        4.1920437006       14.9997201740
  C        11.1509872070        7.0250823943       15.7507566301
  H        11.1509861195        7.7921242469       14.9837147506
  C        11.1509890499       17.8327618577        4.9430766366
  H        11.1509874645       18.5998047302        4.1760337188
  C         0.3274077017        7.0411126089        4.9591030611
  H         0.3273610502        7.8081628519        4.1920516182
  C         0.3594359064       17.8487662743       15.7667542330
  H         0.3593890301       18.6158172485       14.9997040127
  C        11.1509889709       15.7507565268        7.0250820384
  H        11.1509872794       14.9837148711        7.7921234215
  C        11.1509874531        4.9430774064       17.8327620718
  H        11.1509859354        4.1760344322       18.5998045133
  C         0.3594356555       15.7667549294       17.8487652951
  H         0.3593888184       14.9997052037       18.6158163774
  C         0.3274075004        4.9591027152        7.0411133042
  H         0.3273607862        4.1920513436        7.8081630056
  C        11.1380570818        7.0250904296        7.0250906825
  H        11.1403306098        7.7921300757        7.7921306587
  C        11.1700852163       17.8327488389       17.8327480566
  H        11.1723587410       18.5997900798       18.5997887259
  C         0.3465042811        7.0411001434       17.8487737287
  H         0.3487323070        7.8081477812       18.6158239288
  C         0.3465053446       17.8487739783        7.0410997642
  H         0.3487336421       18.6158241299        7.8081474787
  C        15.5202768350       11.3814493139       15.7442863442
  H        14.7521000433       11.3825875411       14.9783823431
  C        15.4882446924        0.5738805198        4.9366308670
  H        14.7200602002        0.5749717508        4.1707174587
  C         4.6966109845       11.3974748725        4.9526334586
  H         3.9284328085       11.3986130720        4.1867280529
  C         4.6966091296        0.5898845311       15.7603084481
  H         3.9284229687        0.5909756801       14.9943954282
  C        15.5073496630       11.3814599410        7.0186221387
  H        14.7414456853       11.3825948798        7.7867981543
  C        15.5073427115        0.5738695314       17.8263021367
  H        14.7414311266        0.5749573722       18.5944883830
  C         4.7157087469       11.3974634628       17.8423049058
  H         3.9498043005       11.3985988663       18.6104835795
  C         4.6836813625        0.5898951067        7.0346535546
  H         3.9177680760        0.5909831405        7.8028390851
  C         6.7946242106       11.3943806558       15.7572158912
  H         7.5605283179       11.3932445219       14.9890387061
  C         6.7626010397        0.5868122193        4.9495602270
  H         7.5285128470        0.5856286374        4.1813732731
  C        17.5862645483       11.3783771999        4.9335330302
  H        18.3521697531       11.3772404618        4.1653536124
  C        17.5862633959        0.5707868482       15.7412082563
  H        18.3521765512        0.5696029215       14.9730217035
  C         6.7816960654       11.3943874583        7.0315515254
  H         7.5498721982       11.3932512335        7.7974562409
  C         6.7816993551        0.5867973096       17.8392319539
  H         7.5498840802        0.5856136718       18.6051454618
  C        17.6053625320       11.3783620348       17.8232055532
  H        18.3735402716       11.3772256016       18.5891113878
  C        17.5733345798        0.5707932806        7.0155537742
  H        18.3415205669        0.5696097529        7.7814672618
  C        15.5202776454       15.7442867376       11.3814481444
  H        14.7521010360       14.9783830837       11.3825869396
  C        15.4882440141        4.9366306098        0.5738810084
  H        14.7200607317        4.1707159723        0.5749727421
  C         4.6966099465       15.7603089319        0.5898840405
  H         3.9284253675       14.9943949921        0.5909756872
  C         4.6966097026        4.9526333472       11.3974753231
  H         3.9284319342        4.1867274132       11.3986135256
  C         6.7946252447       15.7572164322       11.3943801202
  H         7.5605285472       14.9890387368       11.3932441459
  C         6.7626006608        4.9495598361        0.5868125599
  H         7.5285126291        4.1813731991        0.5856289844
  C        17.5862642288       15.7412081120        0.5707858049
  H        18.3521774699       14.9730222053        0.5696021548
  C        17.5862642396        4.9335333186       11.3783775473
  H        18.3521688827        4.1653534218       11.3772411592
  C        15.5073480055        7.0186220265       11.3814597861
  H        14.7414447033        7.7867994157       11.3825949403
  C        15.5073442621       17.8263022116        0.5738691559
  H        14.7414328699       18.5944884664        0.5749577750
  C         4.6836806800        7.0346524213        0.5898955472
  H         3.9177685062        7.8028390412        0.5909846136
  C         4.7157097169       17.8423057767       11.3974628733
  H         3.9498048973       18.6104841721       11.3985979402
  C         6.7816950399        7.0315521537       11.3943877636
  H         7.5498723574        7.7974562045       11.3932515745
  C         6.7817007820       17.8392320934        0.5867967595
  H         7.5498865516       18.6051448209        0.5856133158
  C        17.5733343166        7.0155535786        0.5707930954
  H        18.3415217304        7.7814657351        0.5696104151
  C        17.6053636435       17.8232061920       11.3783609394
  H        18.3735419375       18.5891119874       11.3772249638
 Kr        21.3762719308       10.7922943552       10.7922943554
