     409
 i =     232, E =     -965.1037804082
  N         2.9368444688        5.2155916393       16.0200709960
  C         1.6358473316        5.4834856272       16.2859431269
  N        13.7556047205        5.1905998857        5.1906000949
  C        12.4510553815        5.4483152118        5.4483155080
  N        19.6253911733       17.5521006413       16.0142438277
  C        20.9261886088       17.2884371979       16.2850826984
  N         8.8316071823       17.6095574275        5.1677585481
  C        10.1293666685       17.3323512990        5.4399763598
  N        19.6213639368        5.2212861442        6.7591548281
  C        20.9221681138        5.4877190616        6.4910631293
  N         8.8316065108        5.1677587006       17.6095575323
  C        10.1293659844        5.4399766038       17.3323514585
  N         2.9357983174       17.5587803247        6.7528840929
  C         1.6352272891       17.2896703192        6.4862944697
  N        13.7574368725       17.5723027920       17.5723024637
  C        12.4529229993       17.3144923358       17.3144919006
  N        15.9334737483        3.0392719054        5.2087994987
  C        16.1995303144        1.7391390099        5.4789901014
  N        15.9023915768       13.8476537005       16.0192348629
  C        16.1706771260       12.5461098643       16.2839021399
  N        15.9339544020       19.7287708327       17.5580969476
  C        16.2001145865       21.0291667526       17.2888685405
  N        15.8964727792        8.9214503796        6.7478941498
  C        16.1655523496       10.2229929231        6.4837466294
  N         6.6296465508       19.7335421470        5.2087310971
  C         6.3643573211       21.0334238484        5.4804102850
  N         6.6411121904        8.9232722557       16.0309976644
  C         6.3741433890       10.2257085169       16.2930341974
  N         6.6342928730        3.0446288093       17.5664317530
  C         6.3703056440        1.7443327282       17.2952439659
  N         6.6532729112       13.8488556398        6.7595936427
  C         6.3828559908       12.5480039811        6.4951226006
  N         5.1068098039       16.0178154990        3.0447527258
  C         5.3736560231       16.2854195142        1.7440556598
  N         5.1130273352        5.2244617714       13.8509389118
  C         5.3778746817        5.4932187344       12.5496559880
  N        17.4622628890       16.0109245477       19.7278757614
  C        17.1975773297       16.2797814961       21.0290204636
  N        17.4428520256        5.2183176650        8.9231745154
  C        17.1741190820        5.4856486510       10.2235004647
  N         5.1023760613        6.7577144485       19.7317225685
  C         5.3682075613        6.4907374837       21.0326858234
  N         5.1012687890       17.5659708712        8.9282907746
  C         5.3694491577       17.2951312083       10.2283102655
  N        17.4603123098        6.7574054711        3.0412547401
  C        17.1959321883        6.4890939894        1.7399453433
  N        17.4493283041       17.5483199236       13.8456759040
  C        17.1796427251       17.2816803194       12.5453890800
  N         5.1006321502        3.0443403517        6.7584039104
  C         5.3672114499        1.7435364847        6.4911449310
  N         5.1067015798       13.8512648233       17.5615244801
  C         5.3720522321       12.5501711631       17.2930470233
  N        17.4602889754       19.7271948099        6.7588937846
  C        17.1959171031       21.0283095062        6.4897710232
  N        17.4468466959        8.9237550353       17.5493337103
  C        17.1783534480       10.2241482180       17.2821528770
  N         5.1083747279       19.7322133146       16.0196046841
  C         5.3745574141       21.0331659831       16.2863697941
  N         5.1082713399        8.9275059449        5.2185452029
  C         5.3755941638       10.2276266099        5.4903833780
  N        17.4611864399        3.0421365045       16.0113049309
  C        17.1970378188        1.7408104770       16.2799057262
  N        17.4456157557       13.8451498373        5.2206473091
  C        17.1755494571       12.5448305000        5.4867731386
  N         2.9383652790       16.0244326917       17.5623732305
  C         1.6376018001       16.2899964888       17.2932469412
  N        13.7359434599       16.0337240305        6.7305986510
  C        12.4390572421       16.3110222277        6.4536277410
  N        19.6236273691       16.0123125596        5.2206060463
  C        20.9243479999       16.2822430841        5.4857149355
  N         8.8126603734       16.0674779263       16.0674776404
  C        10.1179061032       16.3261098996       16.3261095033
  N        19.6229142788        6.7577215661       17.5508881574
  C        20.9238016210        6.4886083505       17.2860489696
  N         8.8116501535        6.6966200820        6.6966204584
  C        10.1166593658        6.4373677520        6.4373681363
  N         2.9344878448        6.7568623123        5.2188218801
  C         1.6336860069        6.4900400353        5.4867622203
  N        13.7359427447        6.7305990598       16.0337242454
  C        12.4390565358        6.4536281255       16.3110224626
  N        15.9337140854        5.2100931978       19.7281590005
  C        16.1995959193        5.4796032229       21.0284606070
  N        15.8997528271       16.0204675625        8.9224506798
  C        16.1693525344       16.2844609226       10.2238823287
  N        15.9325186739       17.5581372575        3.0402874393
  C        16.1994509133       17.2888723379        1.7400550921
  N        15.8994505887        6.7504882059       13.8469534319
  C        16.1670362424        6.4849804704       12.5453947052
  N         6.6267750881        5.2083371713        3.0435513381
  C         6.3628930000        5.4803966320        1.7435132575
  N         6.6458649110       16.0255703226       13.8500254130
  C         6.3764099782       16.2906000895       12.5488133413
  N         6.6368282583       17.5672870947       19.7339348482
  C         6.3716115309       17.2958357828       21.0339749350
  N         6.6493171616        6.7524543004        8.9228499172
  C         6.3809595502        6.4918445347       10.2249846782
  N        19.6229149604       17.5508879336        6.7577211643
  C        20.9238023012       17.2860487206        6.4886079573
  N         8.8331452555       17.6045392122       17.6045387020
  C        10.1307419297       17.3294051104       17.3294045942
  N         2.9344878593        5.2188214961        6.7568625553
  C         1.6336860138        5.4867618522        6.4900403288
  N        13.7561148970        5.1965934736       17.5757795676
  C        12.4516127973        5.4534525994       17.3169552513
  N         2.9383652779       17.5623735556       16.0244322508
  C         1.6376017979       17.2932473046       16.2899960766
  N        13.7561155733       17.5757794145        5.1965931519
  C        12.4516134772       17.3169550743        5.4534522684
  N        19.6236267086        5.2206064032       16.0123128194
  C        20.9243473290        5.4857153120       16.2822433621
  N         8.8308521270        5.1597637440        5.1597640312
  C        10.1287482535        5.4341310411        5.4341313828
  N         6.6368279166       19.7339350873       17.5672869960
  C         6.3716109973       21.0339751661       17.2958358335
  N         6.6493173125        8.9228496349        6.7524545933
  C         6.3809598625       10.2249844114        6.4918447349
  N         6.6267752016        3.0435511871        5.2083372276
  C         6.3628932665        1.7435130686        5.4803966598
  N         6.6458646432       13.8500255508       16.0255702558
  C         6.3764095571       12.5488135112       16.2906000307
  N        15.9325179247        3.0402876213       17.5581373389
  C        16.1994502494        1.7400553070       17.2888723409
  N        15.8994512502       13.8469533035        6.7504880700
  C        16.1670368282       12.5453945525        6.4849803865
  N        15.9337146808       19.7281587988        5.2100930998
  C        16.1995963285       21.0284604045        5.4796032991
  N        15.8997521655        8.9224509657       16.0204676274
  C        16.1693519881       10.2238826066       16.2844609079
  N        17.4602884033        6.7588938786       19.7271950085
  C        17.1959167058        6.4897709306       21.0283097018
  N        17.4468474688       17.5493335112        8.9237547839
  C        17.1783540672       17.2821528254       10.2241479651
  N         5.1006319650        6.7584037812        3.0443407036
  C         5.3672111468        6.4911448589        1.7435368036
  N         5.1067018786       17.5615245806       13.8512645077
  C         5.3720526620       17.2930470944       12.5501708771
  N        17.4611871165       16.0113047898        3.0421361367
  C        17.1970384532       16.2799056860        1.7408101361
  N        17.4456151422        5.2206474782       13.8451501075
  C        17.1755488861        5.4867732433       12.5448307511
  N         5.1083749580       16.0196048966       19.7322131040
  C         5.3745578776       16.2863697964       21.0331657777
  N         5.1082712207        5.2185448750        8.9275061558
  C         5.3755938673        5.4903831638       10.2276268323
  N        17.4622626372       19.7278761411       16.0109244407
  C        17.1975769144       21.0290208059       16.2797814111
  N        17.4428522406        8.9231742302        5.2183176255
  C        17.1741194449       10.2235002100        5.4856486126
  N         5.1068089859        3.0447529388       16.0178157947
  C         5.3736552712        1.7440558791       16.2854197515
  N         5.1130280597       13.8509386921        5.2244616975
  C         5.3778752771       12.5496557606        5.4932187578
  N        17.4603122371        3.0412545513        6.7574059676
  C        17.1959322656        1.7399451461        6.4890943683
  N        17.4493281969       13.8456761458       17.5483195723
  C        17.1796424335       12.5453893354       17.2816801035
  N         5.1023766205       19.7317222308        6.7577142876
  C         5.3682080544       21.0326855160        6.4907374067
  N         5.1012681518        8.9282910785       17.5659710336
  C         5.3694485476       10.2283105451       17.2951312726
  N        19.6213639361        6.7591544948        5.2212864972
  C        20.9221681108        6.4910627962        5.4877194210
  N         8.8119079562        6.6989369671       16.0667770613
  C        10.1169967559        6.4396575878       16.3255225596
  N         2.9357976466        6.7528844297       17.5587806410
  C         1.6352266181        6.4862948394       17.2896706161
  N        13.7353852721        6.7286906210        6.7286908083
  C        12.4386373561        6.4513701599        6.4513704540
  N         2.9368451436       16.0200706714        5.2155913039
  C         1.6358480015       16.2859428192        5.4834852655
  N        13.7369894394       16.0342990871       16.0342987855
  C        12.4400160279       16.3114116938       16.3114113011
  N        19.6253911861       16.0142441551       17.5521002351
  C        20.9261886146       16.2850830672       17.2884368019
  N         8.8119086703       16.0667768229        6.6989367043
  C        10.1169974686       16.3255223196        6.4396572768
  N         6.6342937286       17.5664314376        3.0446285802
  C         6.3703064346       17.2952437093        1.7443324868
  N         6.6532721851        6.7595936960       13.8488559118
  C         6.3828553951        6.4951225729       12.5480042478
  N         6.6296460256        5.2087313021       19.7335423027
  C         6.3643568541        5.4804103912       21.0334240319
  N         6.6411128863       16.0309975433        8.9232721117
  C         6.3741440206       16.2930341554       10.2257083478
  N        15.9339546433       17.5580970430       19.7287706540
  C        16.2001150031       17.2888686311       21.0291665409
  N        15.8964725692        6.7478941958        8.9214505042
  C        16.1655519892        6.4837466666       10.2229930738
  N        15.9334737752        5.2087990505        3.0392721194
  C        16.1995302132        5.4789897538        1.7391392202
  N        15.9023916347       16.0192352598       13.8476534101
  C        16.1706773719       16.2839023906       12.5461095796
 Zn        14.5759790637       14.7053314763       14.7053311270
 Cl        13.4009286792       13.4871805932       13.4871800364
 Zn        14.6209807455        3.8827765357        3.8827768373
 Cl        13.4266520884        2.6721070205        2.6721076338
 Zn         3.7921355764       14.7019116157        3.9007021112
 Cl         2.5992085148       13.4808393219        2.7011863615
 Zn         3.7921348446        3.9007023110       14.7019118860
 Cl         2.5992072955        2.7011867887       13.4808398474
 Zn         7.9630287736        8.0253615884       14.7639686450
 Cl         9.3411425695        9.1970610565       13.7306793015
 Zn         7.9522815289       18.9095442774        3.8685608316
 Cl         9.1035495092       20.1426759454        2.6408207140
 Zn        18.7668159073        8.0774563873        3.9047293821
 Cl        19.9827462814        9.2772876529        2.7056431628
 Zn        18.7702697977       18.8645729808       14.6924007857
 Cl        19.9872650191       20.0607907452       13.4906534677
 Zn         7.9630294465       14.7639685170        8.0253614898
 Cl         9.3411436419       13.7306794726        9.1970607626
 Zn         7.9522809931        3.8685609439       18.9095443895
 Cl         9.1035486638        2.6408207048       20.1426762249
 Zn        18.7702699302       14.6924008852       18.8645724899
 Cl        19.9872653106       13.4906534521       20.0607899751
 Zn        18.7668157623        3.9047293207        8.0774568482
 Cl        19.9827458150        2.7056432229        9.2772885614
 Zn        14.5722727308        8.0602508926        8.0602507913
 Cl        13.3910140315        9.2754473852        9.2754470458
 Zn        14.6206491570       18.8818131623       18.8818131830
 Cl        13.4239133361       20.0912279822       20.0912280905
 Zn         3.7823731639        8.0725068452       18.8797982909
 Cl         2.5826902873        9.2795204966       20.0871046158
 Zn         3.7823735977       18.8797980021        8.0725066026
 Cl         2.5826906732       20.0871043763        9.2795201533
 Zn        14.5744274254       14.7071354814        8.0639738651
 Cl        13.3958088302       13.4866957746        9.2764574747
 Zn        14.6199657015        3.8863348594       18.8834637064
 Cl        13.4226743306        2.6767159659       20.0921658280
 Zn         3.7886302662       14.7052284895       18.8796747877
 Cl         2.5925196859       13.4958703949       20.0883329408
 Zn         3.7860127520        3.8998764124        8.0751366591
 Cl         2.5892715003        2.7020861292        9.2940119185
 Zn         7.9657011060        8.0111055939        8.0111059452
 Cl         9.3545892637        9.1090895731        9.1090902005
 Zn         7.9571148514       18.9059683403       18.9059680168
 Cl         9.1165169664       20.1325679554       20.1325672929
 Zn        18.7684173007        8.0783119684       18.8656301031
 Cl        19.9847784910        9.2778516480       20.0645859755
 Zn        18.7684179967       18.8656298938        8.0783116943
 Cl        19.9847795978       20.0645856393        9.2778510851
 Zn        14.5744268570        8.0639740636       14.7071355330
 Cl        13.3958081322        9.2764575455       13.4866958197
 Zn        14.6199663051       18.8834636244        3.8863346454
 Cl        13.4226753326       20.0921657423        2.6767153591
 Zn         3.7860126697        8.0751365650        3.8998768446
 Cl         2.5892713516        9.2940118359        2.7020866430
 Zn         3.7886304026       18.8796748978       14.7052279933
 Cl         2.5925203106       20.0883329444       13.4958693058
 Zn         7.9601790665       14.7530353631       14.7530354310
 Cl         9.3321250179       13.6452321624       13.6452324967
 Zn         7.9468713882        3.8629939399        3.8629939398
 Cl         9.0891208309        2.6283023161        2.6283023323
 Zn        18.7683838873       14.6926500588        3.9066352628
 Cl        19.9848814426       13.4912815377        2.7095405932
 Zn        18.7683834192        3.9066355374       14.6926503084
 Cl        19.9848809305        2.7095406556       13.4912819613
 Zn         5.8752285130        5.9734852101       16.8060016490
 Zn        16.6840120898       16.7845808272       16.7845805466
 Zn        16.6808040093        5.9832763726        5.9832765911
 Zn         5.8752292271       16.8060013925        5.9734850068
 Zn         5.8728395205        5.9697749702        5.9697752317
 Zn        16.6821400853       16.7847558263        5.9849494574
 Zn         5.8779599918       16.8038844101       16.8038841548
 Zn        16.6821393790        5.9849497496       16.7847560069
  N         3.6761664597        5.9839365954       16.7902558639
  N        14.4851005062        5.9647823373        5.9647824787
  N        18.8857829104       16.7809882432       16.7809878837
  N         8.0818002922       16.8432540630        5.9303456194
  N        18.8817731697        5.9908217336        5.9908220749
  N         8.0817996026        5.9303457880       16.8432542161
  N         3.6761671468       16.7902555311        5.9839362761
  N        14.4869158672       16.7981272117       16.7981269566
  N        16.6962753194        3.7801633417        5.9826087499
  N        16.6759772411       14.5862895108       16.7842137928
  N        16.6975340575       18.9884151392       16.7845726002
  N        16.6694581070        8.1826017111        5.9823849660
  N         5.8654311772       18.9933744929        5.9814393278
  N         5.8713548917        8.1857430337       16.8016297823
  N         5.8693550082        3.7840883941       16.7937169441
  N         5.8849173376       14.5900708788        5.9898767941
  N         5.8693558714       16.7937166146        3.7840881794
  N         5.8849165437        5.9898769063       14.5900711185
  N        16.6975342094       16.7845727028       18.9884148584
  N        16.6694579766        5.9823850136        8.1826019181
  N         5.8654306025        5.9814395610       18.9933747501
  N         5.8713555782       16.8016295886        8.1857428001
  N        16.6962754383        5.9826082234        3.7801635451
  N        16.6759772232       16.7842142435       14.5862892428
  N         5.8625283474        3.7832369443        5.9814243894
  N         5.8777727053       14.5907558297       16.7952173294
  N        16.6964292412       18.9877757445        5.9844222637
  N        16.6728305507        8.1834331010       16.7856690009
  N         5.8719181722       18.9937445631       16.7952167407
  N         5.8794201259        8.1850690622        5.9814683387
  N        16.6959476555        3.7811093379       16.7848834426
  N        16.6729859533       14.5856931733        5.9855283091
  N         3.6782446942       16.7942454232       16.7942450418
  N        14.4856730113       16.7999308162        5.9689919675
  N        18.8836714294       16.7800050995        5.9904357593
  N         8.0830474750       16.8402306703       16.8402303165
  N        18.8836707455        5.9904361342       16.7800053334
  N         8.0811940084        5.9242795318        5.9242798380
  N         3.6742953431        5.9874911551        5.9874914608
  N        14.4856723174        5.9689923310       16.7999309826
  N        16.6964285558        5.9844224607       18.9877759385
  N        16.6728313363       16.7856688137        8.1834328371
  N        16.6959483973       16.7848832772        3.7811090533
  N        16.6729852890        5.9855284997       14.5856933810
  N         5.8625282734        5.9814242774        3.7832371975
  N         5.8777729064       16.7952174169       14.5907556006
  N         5.8719183333       16.7952170053       18.9937443351
  N         5.8794200837        5.9814679707        8.1850693111
  C        11.2727097235       15.7800509527       15.7800505763
  H        11.2656003680       15.0134016071       15.0134012824
  C        11.2964547011        4.9016618604        4.9016621923
  H        11.3057394060        4.1345553520        4.1345556854
  C         0.4754418233       15.7445672419        4.9451692034
  H         0.4759231461       14.9774536748        4.1782087203
  C         0.4754411559        4.9451695616       15.7445675394
  H         0.4759224765        4.1782090671       14.9774539921
  C        11.2720284753        6.9831418025       15.7774437527
  H        11.2654397142        7.7476794948       15.0087856891
  C        11.2971615534       17.8657409874        4.9087848424
  H        11.3066746146       18.6353807949        4.1442457161
  C         0.4729329765        7.0299415141        4.9477028907
  H         0.4728316772        7.7967151586        4.1804014744
  C         0.4769197637       17.8306015095       15.7483359654
  H         0.4769675848       18.5979168226       14.9815667764
  C        11.2720292050       15.7774434757        6.9831414002
  H        11.2654404813       15.0087853538        7.7476790419
  C        11.2971608860        4.9087850979       17.8657411344
  H        11.3066739672        4.1442459299       18.6353808905
  C         0.4769197702       15.7483363632       17.8306011333
  H         0.4769675940       14.9815671820       18.5979164521
  C         0.4729329879        4.9477024982        7.0299418010
  H         0.4728316978        4.1804010446        7.7967154097
  C        11.2718313142        6.9829549423        6.9829553153
  H        11.2658160882        7.7494900873        7.7494904880
  C        11.2987248848       17.8614149115       17.8614143626
  H        11.3086140029       18.6285071206       18.6285064929
  C         0.4741956344        7.0264887547       17.8277499854
  H         0.4736666672        7.7929047935       18.5954268099
  C         0.4741963166       17.8277497186        7.0264883556
  H         0.4736673638       18.5954265614        7.7929043830
  C        15.6283020084       11.3851616479       15.7472808058
  H        14.8580823336       11.3854285843       14.9834416736
  C        15.6634422859        0.5786305741        4.9362345550
  H        14.9011646747        0.5783614246        4.1644632181
  C         4.8363851276       11.3898136211        4.9537840823
  H         4.0691335347       11.3914184080        4.1869299805
  C         4.8381566399        0.5832040299       15.7424992231
  H         4.0757094856        0.5826073212       14.9709609039
  C        15.6246313541       11.3842436030        7.0212901035
  H        14.8545940013       11.3843325209        7.7852829813
  C        15.6632144917        0.5794527013       17.8313719959
  H        14.9001508674        0.5791958283       18.6023659723
  C         4.8310197222       11.3903194351       17.8329082023
  H         4.0645982339       11.3917960590       18.6006241879
  C         4.8322932156        0.5828118697        7.0349840643
  H         4.0706610833        0.5823612631        7.8073311884
  C         6.9148560997       11.3862551285       15.7527945753
  H         7.6848807373       11.3847268526       14.9888509097
  C         6.8998674500        0.5837705912        4.9373548866
  H         7.6610267047        0.5841959166        4.1645327832
  C        17.7171236789       11.3840986974        4.9496734991
  H        18.4883658264       11.3839956274        4.1867943286
  C        17.7339761276        0.5800696496       15.7374967235
  H        18.4969196352        0.5802970325       14.9663795788
  C         6.9214623895       11.3853570833        7.0326676651
  H         7.6910780375       11.3835852092        7.7970934068
  C         6.9076856095        0.5845593568       17.8380698734
  H         7.6697385271        0.5851456703       18.6100650574
  C        17.7216555810       11.3845828283       17.8181237735
  H        18.4932057921       11.3843124617       18.5807224283
  C        17.7318929858        0.5792830083        7.0325599335
  H        18.4938261487        0.5795135727        7.8046513316
  C        15.6283023865       15.7472809688       11.3851613510
  H        14.8580826675       14.9834418738       11.3854282642
  C        15.6634420232        4.9362343427        0.5786307887
  H        14.9011643989        4.1644630236        0.5783616528
  C         4.8381572540       15.7424991220        0.5832038172
  H         4.0757100617       14.9709608254        0.5826071267
  C         4.8363846765        4.9537839621       11.3898138227
  H         4.0691330847        4.1869298619       11.3914185742
  C         6.9148566431       15.7527946011       11.3862550304
  H         7.6848812937       14.9888509455       11.3847268609
  C         6.8998670923        4.9373549286        0.5837707012
  H         7.6610263586        4.1645328436        0.5841959169
  C        17.7339766553       15.7374967533        0.5800692289
  H        18.4969201581       14.9663795976        0.5802964918
  C        17.7171232039        4.9496735578       11.3840990146
  H        18.4883653437        4.1867943841       11.3839960428
  C        15.6246308605        7.0212901504       11.3842436915
  H        14.8545934985        7.7852830156       11.3843325180
  C        15.6632150636       17.8313720611        0.5794525658
  H        14.9001514604       18.6023660625        0.5791958045
  C         4.8322927844        7.0349840406        0.5828122605
  H         4.0706606239        7.8073311311        0.5823617708
  C         4.8310202554       17.8329082150       11.3903190789
  H         4.0645987694       18.6006242044       11.3917955910
  C         6.9214619302        7.0326675611       11.3853573745
  H         7.6910775710        7.7970933058       11.3835855426
  C         6.9076863086       17.8380696644        0.5845591207
  H         7.6697392775       18.6100648166        0.5851454111
  C        17.7318927716        7.0325596794        0.5792831982
  H        18.4938259529        7.8046510528        0.5795137524
  C        17.7216560694       17.8181238144       11.3845825883
  H        18.4932063297       18.5807224291       11.3843122418
 Kr        10.6746647873       11.3747349388       11.3747350045
