     409
 i =     232, E =     -965.1016780783
  N         3.0422831016        5.2151451602       16.0228217167
  C         1.7413611295        5.4824747885       16.2901497849
  N        13.8498623311        5.2151447684        5.2151454824
  C        12.5489280456        5.4824712067        5.4824726315
  N        19.7336081013       17.5607975913       16.0228229946
  C        21.0345583539       17.2934822128       16.2901375884
  N         8.9260833152       17.5607971813        5.2151466734
  C        10.2270187581       17.2934707491        5.4824722061
  N        19.7336088586        5.2151461499        6.7531214122
  C        21.0345585305        5.4824610779        6.4858060239
  N         8.9260821138        5.2151469426       17.5607965139
  C        10.2270172539        5.4824731521       17.2934715870
  N         3.0422823819       17.5607973951        6.7531221183
  C         1.7413615577       17.2934686512        6.4857929970
  N        13.8498582009       17.5607973178       17.5607971576
  C        12.5489245221       17.2934715820       17.2934708428
  N        16.0228202465        3.0422804029        5.2151455407
  C        16.2901492649        1.7413600253        5.4824738970
  N        16.0228148413       13.8498641857       16.0228168649
  C        16.2901459337       12.5489297420       16.2901476610
  N        16.0228203994       19.7336111816       17.5607970760
  C        16.2901344644       21.0345606685       17.2934816672
  N        16.0228178275        8.9260795980        6.7531259567
  C        16.2901471974       10.2270139121        6.4857958906
  N         6.7531237355       19.7336084344        5.2151463081
  C         6.4858086139       21.0345586293        5.4824617321
  N         6.7531263268        8.9260796234       16.0228191837
  C         6.4857961862       10.2270149015       16.2901486408
  N         6.7531223210        3.0422803182       17.5607973720
  C         6.4857939641        1.7413601466       17.2934684943
  N         6.7531287202       13.8498627647        6.7531265996
  C         6.4857969629       12.5489287908        6.4857954726
  N         5.2151481517       16.0228195538        3.0422809186
  C         5.4824772423       16.2901494139        1.7413601932
  N         5.2151464831        5.2151450492       13.8498616844
  C         5.4824739710        5.4824713836       12.5489271184
  N        17.5607937817       16.0228242550       19.7336083355
  C        17.2934794944       16.2901375033       21.0345589092
  N        17.5607945890        5.2151471197        8.9260812538
  C        17.2934692630        5.4824716913       10.2270171281
  N         5.2151480175        6.7531221091       19.7336097963
  C         5.4824636198        6.4858059945       21.0345591507
  N         5.2151487671       17.5607977685        8.9260830943
  C         5.4824737258       17.2934709978       10.2270179508
  N        17.5607953092        6.7531204706        3.0422816970
  C        17.2934681448        6.4857915603        1.7413598813
  N        17.5607944128       17.5607976352       13.8498602733
  C        17.2934687174       17.2934713136       12.5489251836
  N         5.2151490952        3.0422817398        6.7531210743
  C         5.4824773162        1.7413614854        6.4857932648
  N         5.2151478695       13.8498615589       17.5607972604
  C         5.4824735543       12.5489278026       17.2934714770
  N        17.5607930270       19.7336079697        6.7531195851
  C        17.2934801203       21.0345579020        6.4858056304
  N        17.5607917122        8.9260828997       17.5607940373
  C        17.2934678174       10.2270175491       17.2934709334
  N         5.2151486194       19.7336082628       16.0228229661
  C         5.4824626152       21.0345584072       16.2901374124
  N         5.2151502031        8.9260798258        5.2151468243
  C         5.4824742550       10.2270150972        5.4824727224
  N        17.5607926635        3.0422836127       16.0228240010
  C        17.2934660361        1.7413619383       16.2901505440
  N        17.5607942768       13.8498622011        5.2151470417
  C        17.2934699703       12.5489271772        5.4824730470
  N         3.0422820259       16.0228234419       17.5607961512
  C         1.7413612200       16.2901512910       17.2934688141
  N        13.8498651259       16.0228194510        6.7531248925
  C        12.5489315389       16.2901484515        6.4857949438
  N        19.7336074766       16.0228228591        5.2151478735
  C        21.0345575238       16.2901374503        5.4824616255
  N         8.9260772818       16.0228198414       16.0228195820
  C        10.2270129484       16.2901486598       16.2901488151
  N        19.7336070895        6.7531198559       17.5607941096
  C        21.0345566445        6.4858055449       17.2934816405
  N         8.9260795690        6.7531237722        6.7531235596
  C        10.2270140884        6.4857941749        6.4857950471
  N         3.0422854583        6.7531207776        5.2151472896
  C         1.7413641910        6.4857922447        5.4824746823
  N        13.8498647640        6.7531246432       16.0228197718
  C        12.5489302287        6.4857952510       16.2901485925
  N        16.0228213621        5.2151484897       19.7336082819
  C        16.2901352904        5.4824618736       21.0345576927
  N        16.0228183551       16.0228198624        8.9260788317
  C        16.2901466167       16.2901482219       10.2270130090
  N        16.0228224805       17.5607956751        3.0422805600
  C        16.2901499160       17.2934687071        1.7413606126
  N        16.0228182138        6.7531253775       13.8498648996
  C        16.2901460746        6.4857947672       12.5489306892
  N         6.7531234044        5.2151454787        3.0422828675
  C         6.4857951869        5.4824733378        1.7413619975
  N         6.7531267502       16.0228195302       13.8498649027
  C         6.4857964881       16.2901488127       12.5489303378
  N         6.7531198267       17.5607961166       19.7336085926
  C         6.4858071216       17.2934818160       21.0345585697
  N         6.7531259348        6.7531227630        8.9260780178
  C         6.4857969769        6.4857945260       10.2270126571
  N        19.7336089629       17.5607949793        6.7531194379
  C        21.0345581937       17.2934811623        6.4858053949
  N         8.9260825316       17.5607960868       17.5607948085
  C        10.2270168523       17.2934720889       17.2934703308
  N         3.0422847241        5.2151462722        6.7531215734
  C         1.7413640095        5.4824740039        6.4857935494
  N        13.8498606990        5.2151475868       17.5607955312
  C        12.5489271008        5.4824725818       17.2934708685
  N         3.0422820365       17.5607971120       16.0228230164
  C         1.7413613643       17.2934692450       16.2901505945
  N        13.8498622234       17.5607955561        5.2151475490
  C        12.5489284319       17.2934706414        5.4824727218
  N        19.7336056983        5.2151484787       16.0228238803
  C        21.0345555392        5.4824621657       16.2901374868
  N         8.9260815613        5.2151467968        5.2151470368
  C        10.2270165149        5.4824718354        5.4824721756
  N         6.7531197429       19.7336099305       17.5607959231
  C         6.4858062759       21.0345594872       17.2934818605
  N         6.7531255219        8.9260781184        6.7531240024
  C         6.4857971714       10.2270125472        6.4857951174
  N         6.7531237470        3.0422822237        5.2151471004
  C         6.4857954850        1.7413613353        5.4824747641
  N         6.7531261187       13.8498653416       16.0228184412
  C         6.4857962563       12.5489309342       16.2901488586
  N        16.0228209024        3.0422814246       17.5607951882
  C        16.2901485530        1.7413614796       17.2934691836
  N        16.0228175881       13.8498637434        6.7531249975
  C        16.2901463853       12.5489301607        6.4857945758
  N        16.0228223643       19.7336082114        5.2151474729
  C        16.2901365220       21.0345573858        5.4824612110
  N        16.0228176059        8.9260785455       16.0228201096
  C        16.2901460150       10.2270135710       16.2901480249
  N        17.5607913529        6.7531192732       19.7336073834
  C        17.2934793825        6.4858056452       21.0345575371
  N        17.5607924235       17.5607942412        8.9260822899
  C        17.2934687911       17.2934704010       10.2270170446
  N         5.2151496590        6.7531202821        3.0422824175
  C         5.4824776406        6.4857926818        1.7413617182
  N         5.2151476150       17.5607968719       13.8498609097
  C         5.4824741150       17.2934716441       12.5489271309
  N        17.5607944676       16.0228229990        3.0422823972
  C        17.2934674473       16.2901503147        1.7413609761
  N        17.5607933745        5.2151476096       13.8498633508
  C        17.2934689416        5.4824719813       12.5489283133
  N         5.2151478727       16.0228245073       19.7336082088
  C         5.4824633547       16.2901374931       21.0345579337
  N         5.2151501482        5.2151463790        8.9260801583
  C         5.4824743243        5.4824717123       10.2270153144
  N        17.5607935645       19.7336092877       16.0228232710
  C        17.2934791878       21.0345602876       16.2901376321
  N        17.5607948734        8.9260810963        5.2151473947
  C        17.2934702766       10.2270168541        5.4824730350
  N         5.2151458754        3.0422822057       16.0228217036
  C         5.4824756402        1.7413610810       16.2901498553
  N         5.2151465098       13.8498605030        5.2151443251
  C         5.4824749444       12.5489264092        5.4824716919
  N        17.5607951989        3.0422808775        6.7531214362
  C        17.2934669843        1.7413596478        6.4857932142
  N        17.5607942273       13.8498600351       17.5607972378
  C        17.2934682396       12.5489258054       17.2934708497
  N         5.2151488506       19.7336088879        6.7531221470
  C         5.4824639257       21.0345588100        6.4858060550
  N         5.2151478123        8.9260833566       17.5607968208
  C         5.4824730791       10.2270180511       17.2934710841
  N        19.7336081632        6.7531205856        5.2151465554
  C        21.0345584799        6.4858053173        5.4824619341
  N         8.9260784228        6.7531259098       16.0228192122
  C        10.2270136647        6.4857955864       16.2901483955
  N         3.0422812522        6.7531221745       17.5607972295
  C         1.7413606630        6.4857931687       17.2934690133
  N        13.8498636028        6.7531252668        6.7531254112
  C        12.5489303408        6.4857940607        6.4857951118
  N         3.0422835846       16.0228210859        5.2151445429
  C         1.7413623847       16.2901493728        5.4824748544
  N        13.8498631408       16.0228182208       16.0228178069
  C        12.5489287890       16.2901494479       16.2901480131
  N        19.7336085310       16.0228241067       17.5607971655
  C        21.0345582525       16.2901385997       17.2934818594
  N         8.9260805491       16.0228180964        6.7531260601
  C        10.2270155196       16.2901482825        6.4857957274
  N         6.7531247437       17.5607968566        3.0422799401
  C         6.4857956116       17.2934678879        1.7413594999
  N         6.7531271069        6.7531260843       13.8498643391
  C         6.4857971147        6.4857949272       12.5489295852
  N         6.7531221288        5.2151472089       19.7336077871
  C         6.4858079238        5.4824616893       21.0345580800
  N         6.7531277618       16.0228189128        8.9260798958
  C         6.4857970676       16.2901488606       10.2270146587
  N        16.0228201943       17.5607974849       19.7336117134
  C        16.2901356819       17.2934819105       21.0345607449
  N        16.0228180782        6.7531252363        8.9260789748
  C        16.2901465597        6.4857951109       10.2270139963
  N        16.0228208182        5.2151441796        3.0422812832
  C        16.2901494085        5.4824726912        1.7413607335
  N        16.0228148394       16.0228176243       13.8498632884
  C        16.2901457626       16.2901481738       12.5489290135
 Zn        14.7054059784       14.7054082634       14.7054076641
 Cl        13.5006105676       13.5006123515       13.5006115735
 Zn        14.7053844213        3.8977417075        3.8977426550
 Cl        13.5006152059        2.6929364519        2.6929375135
 Zn         3.8977452022       14.7053840651        3.8977425355
 Cl         2.6929405194       13.5006138003        2.6929368537
 Zn         3.8977441149        3.8977424816       14.7053842820
 Cl         2.6929390362        2.6929368761       13.5006141621
 Zn         8.0705346300        8.0705347321       14.7054095632
 Cl         9.2753318657        9.2753320575       13.5006127972
 Zn         8.0705707609       18.8781906368        3.8977324074
 Cl         9.2753364837       20.0830064217        2.6929327159
 Zn        18.8781893138        8.0705685195        3.8977327368
 Cl        20.0830056436        9.2753340887        2.6929326172
 Zn        18.8781998165       18.8782027032       14.7053632135
 Cl        20.0830094619       20.0830133494       13.5006041213
 Zn         8.0705353268       14.7054092011        8.0705347574
 Cl         9.2753329030       13.5006132068        9.2753319157
 Zn         8.0705692671        3.8977326805       18.8781903515
 Cl         9.2753342737        2.6929333204       20.0830065664
 Zn        18.8781993507       14.7053637352       18.8782014056
 Cl        20.0830088065       13.5006053831       20.0830123717
 Zn        18.8781891024        3.8977326121        8.0705691414
 Cl        20.0830046110        2.6929320694        9.2753348336
 Zn        14.7054088259        8.0705335007        8.0705336548
 Cl        13.5006133659        9.2753310107        9.2753310759
 Zn        14.7053613399       18.8782025103       18.8782023072
 Cl        13.5006030306       20.0830130025       20.0830114959
 Zn         3.8977344171        8.0705692826       18.8781904884
 Cl         2.6929344943        9.2753350821       20.0830062204
 Zn         3.8977352350       18.8781904928        8.0705691004
 Cl         2.6929353793       20.0830067459        9.2753344865
 Zn        14.7054086714       14.7054088206        8.0705346747
 Cl        13.5006125525       13.5006131044        9.2753315534
 Zn        14.7053725231        3.8977323768       18.8781906228
 Cl        13.5006083864        2.6929336189       20.0830062551
 Zn         3.8977332551       14.7053747778       18.8781910024
 Cl         2.6929335518       13.5006109245       20.0830068407
 Zn         3.8977461132        3.8977428372        8.0705577046
 Cl         2.6929406987        2.6929379498        9.2753293309
 Zn         8.0705344052        8.0705328243        8.0705332378
 Cl         9.2753317428        9.2753306841        9.2753305998
 Zn         8.0705798158       18.8782019121       18.8782009678
 Cl         9.2753387861       20.0830126915       20.0830112154
 Zn        18.8781979163        8.0705798466       18.8782005189
 Cl        20.0830077017        9.2753401737       20.0830111418
 Zn        18.8781993232       18.8782004156        8.0705795288
 Cl        20.0830090377       20.0830117641        9.2753394826
 Zn        14.7054075872        8.0705347468       14.7054087077
 Cl        13.5006117931        9.2753320600       13.5006127661
 Zn        14.7053740487       18.8781900574        3.8977321156
 Cl        13.5006105200       20.0830060521        2.6929327555
 Zn         3.8977468339        8.0705571262        3.8977434940
 Cl         2.6929416615        9.2753284495        2.6929378288
 Zn         3.8977336245       18.8781912747       14.7053738763
 Cl         2.6929343767       20.0830075897       13.5006096381
 Zn         8.0705352818       14.7054087894       14.7054083547
 Cl         9.2753326138       13.5006128866       13.5006122189
 Zn         8.0705601546        3.8977421986        3.8977434310
 Cl         9.2753312810        2.6929371072        2.6929378664
 Zn        18.8781899941       14.7053734981        3.8977320556
 Cl        20.0830058912       13.5006089051        2.6929321485
 Zn        18.8781888403        3.8977321743       14.7053742943
 Cl        20.0830040970        2.6929320518       13.5006094068
 Zn         5.9841677187        5.9841682881       16.7917538105
 Zn        16.7917516214       16.7917545100       16.7917541153
 Zn        16.7917533906        5.9841666749        5.9841677162
 Zn         5.9841689680       16.7917536530        5.9841677818
 Zn         5.9841695613        5.9841671267        5.9841678375
 Zn        16.7917528718       16.7917530858        5.9841676381
 Zn         5.9841676043       16.7917545002       16.7917540909
 Zn        16.7917520366        5.9841675689       16.7917538564
  N         3.7820562846        5.9841351633       16.7918097653
  N        14.5896312748        5.9841351460        5.9841355145
  N        18.9938464134       16.7918101956       16.7918099362
  N         8.1863093678       16.7918078706        5.9841359050
  N        18.9938485712        5.9841338822        5.9841352991
  N         8.1863080971        5.9841357737       16.7918087331
  N         3.7820576601       16.7918092919        5.9841340429
  N        14.5896304502       16.7918094936       16.7918081430
  N        16.7918080706        3.7820547306        5.9841323868
  N        16.7918055112       14.5896321358       16.7918078018
  N        16.7918064626       18.9938491063       16.7918115638
  N        16.7918061145        8.1863082895        5.9841369099
  N         5.9841362409       18.9938487590        5.9841346953
  N         5.9841363162        8.1863096167       16.7918090184
  N         5.9841354772        3.7820558725       16.7918095616
  N         5.9841370596       14.5896306146        5.9841350188
  N         5.9841352750       16.7918097754        3.7820551661
  N         5.9841351271        5.9841357619       14.5896314481
  N        16.7918063371       16.7918125660       18.9938488873
  N        16.7918067464        5.9841367545        8.1863087427
  N         5.9841341573        5.9841350723       18.9938491551
  N         5.9841370838       16.7918082260        8.1863092310
  N        16.7918081949        5.9841311465        3.7820557007
  N        16.7918055214       16.7918075098       14.5896318958
  N         5.9841364346        3.7820543817        5.9841346875
  N         5.9841357335       14.5896317592       16.7918084760
  N        16.7918082968       18.9938488660        5.9841322252
  N        16.7918057933        8.1863094296       16.7918079437
  N         5.9841354307       18.9938497553       16.7918093360
  N         5.9841381890        8.1863090984        5.9841349517
  N        16.7918071940        3.7820556689       16.7918118924
  N        16.7918072286       14.5896304288        5.9841378693
  N         3.7820559140       16.7918111726       16.7918102289
  N        14.5896309608       16.7918077533        5.9841357258
  N        18.9938485326       16.7918097384        5.9841340169
  N         8.1863079008       16.7918093891       16.7918086978
  N        18.9938471478        5.9841342784       16.7918097259
  N         8.1863104446        5.9841340826        5.9841360687
  N         3.7820573323        5.9841332667        5.9841345582
  N        14.5896300471        5.9841356304       16.7918093579
  N        16.7918055408        5.9841337015       18.9938492720
  N        16.7918060554       16.7918075200        8.1863092046
  N        16.7918084175       16.7918111981        3.7820550992
  N        16.7918058740        5.9841367759       14.5896314671
  N         5.9841375871        5.9841341879        3.7820549337
  N         5.9841363689       16.7918093700       14.5896313864
  N         5.9841333839       16.7918106430       18.9938490237
  N         5.9841357416        5.9841360329        8.1863092847
  C        11.3879707986       15.7508093531       15.7508086187
  H        11.3879708667       14.9837674526       14.9837668102
  C        11.3879721057        4.9431287197        4.9431296476
  H        11.3879724203        4.1760857979        4.1760866896
  C         0.5803818971       15.7508038642        4.9431287313
  H         0.5803368342       14.9837535231        4.1760777728
  C         0.5803802159        4.9431290252       15.7508041028
  H         0.5803355211        4.1760775003       14.9837539743
  C        11.3879725345        7.0251349124       15.7508091482
  H        11.3879714470        7.7921767634       14.9837672670
  C        11.3879743779       17.8328143777        4.9431291566
  H        11.3879727926       18.5998572478        4.1760862364
  C         0.5803841052        7.0251385844        4.9431290378
  H         0.5803374555        7.7921887582        4.1760775257
  C         0.5803826974       17.8328159794       15.7508039375
  H         0.5803358201       18.5998668840       14.9837536476
  C        11.3879742989       15.7508090469        7.0251345584
  H        11.3879726078       14.9837673887        7.7921759391
  C        11.3879727800        4.9431299251       17.8328145904
  H        11.3879712631        4.1760869487       18.5998570298
  C         0.5803824470       15.7508046342       17.8328149994
  H         0.5803356080       14.9837548392       18.5998660123
  C         0.5803839034        4.9431286906        7.0251392807
  H         0.5803371918        4.1760772498        7.7921889130
  C        11.3879721108        7.0251333668        7.0251336204
  H        11.3879724358        7.7921746977        7.7921752812
  C        11.3879706166       17.8328155055       17.8328147222
  H        11.3879709349       18.5998584312       18.5998570761
  C         0.5803807572        7.0251402661       17.8328138515
  H         0.5803355532        7.7921895212       18.5998656688
  C         0.5803818206       17.8328141018        7.0251398878
  H         0.5803368881       18.5998658711        7.7921892199
  C        15.7508068952       11.3879714665       15.7508084963
  H        14.9837650195       11.3879722495       14.9837670511
  C        15.7508042456        0.5803789370        4.9431292854
  H        14.9837547531        0.5803327124        4.1760784216
  C         4.9431321267       11.3879703546        4.9431289413
  H         4.1760888689       11.3879711078        4.1760860894
  C         4.9431301467        0.5803800112       15.7508039288
  H         4.1760789849        0.5803337021       14.9837534509
  C        15.7508094182       11.3879725170        7.0251347149
  H        14.9837671579       11.3879716954        7.7921749700
  C        15.7508023343        0.5803820979       17.8328147034
  H        14.9837525214        0.5803341670       18.5998651780
  C         4.9431299590       11.3879730938       17.8328145365
  H         4.1760872253       11.3879727361       18.5998574489
  C         4.9431320609        0.5803810093        7.0251394586
  H         4.1760805471        0.5803332689        7.7921892148
  C         7.0251351093       11.3879731145       15.7508083497
  H         7.7921775028       11.3879727413       14.9837669253
  C         7.0251414312        0.5803809559        4.9431289650
  H         7.7921916094        0.5803331461        4.1760777833
  C        17.8328139902       11.3879726028        4.9431284334
  H        18.5998574854       11.3879716270        4.1760847780
  C        17.8328127123        0.5803822502       15.7508036586
  H        18.5998642385        0.5803340976       14.9837528800
  C         7.0251366651       11.3879703390        7.0251344066
  H         7.7921778778       11.3879715575        7.7921765653
  C         7.0251398213        0.5803801960       17.8328148407
  H         7.7921896835        0.5803340142       18.5998658046
  C        17.8328120478       11.3879715870       17.8328151047
  H        18.5998548660       11.3879725994       18.5998583849
  C        17.8328135831        0.5803791036        7.0251395982
  H        18.5998647072        0.5803330338        7.7921905436
  C        15.7508077066       15.7508088911       11.3879702974
  H        14.9837660119       14.9837677933       11.3879716488
  C        15.7508035669        4.9431290256        0.5803794254
  H        14.9837552852        4.1760769344        0.5803337055
  C         4.9431309632       15.7508044120        0.5803795212
  H         4.1760813840       14.9837530165        0.5803337124
  C         4.9431308445        4.9431288279       11.3879708044
  H         4.1760879950        4.1760854482       11.3879715614
  C         7.0251361433       15.7508088921       11.3879725799
  H         7.7921777325       14.9837669563       11.3879723652
  C         7.0251410523        4.9431285718        0.5803812970
  H         7.7921913910        4.1760777072        0.5803334940
  C        17.8328135466       15.7508035140        0.5803812072
  H        18.5998651572       14.9837533816        0.5803333315
  C        17.8328136807        4.9431287216       11.3879729506
  H        18.5998566144        4.1760845863       11.3879723240
  C        15.7508077612        7.0251346004       11.3879723602
  H        14.9837661740        7.7921762301       11.3879717549
  C        15.7508038849       17.8328147790        0.5803817235
  H        14.9837542635       18.5998652624        0.5803345711
  C         4.9431313792        7.0251383224        0.5803814496
  H         4.1760809750        7.7921891697        0.5803347434
  C         4.9431309284       17.8328154086       11.3879725049
  H         4.1760878224       18.5998580423       11.3879718100
  C         7.0251356383        7.0251350333       11.3879706436
  H         7.7921780367        7.7921765290       11.3879718994
  C         7.0251412483       17.8328149805        0.5803796471
  H         7.7921921559       18.5998651655        0.5803336608
  C        17.8328133203        7.0251394007        0.5803789185
  H        18.5998658718        7.7921890171        0.5803336980
  C        17.8328131598       17.8328157453       11.3879704920
  H        18.5998565317       18.5998589871       11.3879719628
 Kr         0.0000000000       10.8075000000       10.8075000000
