     409
 i =      56, E =    -5133.8784564803
  N         3.0317738596        5.2160095994       16.0409706619
  C         1.7129973143        5.4843599221       16.3060346877
  N        13.8300809493        5.2036431397        5.2036441122
  C        12.5134986146        5.4772508384        5.4772519876
  N        19.7335147180       17.5764021118       16.0200600907
  C        21.0510285894       17.3128530913       16.2970680782
  N         8.8939960519       17.5933096098        5.2223615415
  C        10.2117899156       17.3170992354        5.4856164896
  N        19.6926638265        5.2014791726        6.7577601541
  C        21.0102579784        5.4813573715        6.4971615634
  N         8.8939958575        5.2223648910       17.5933108282
  C        10.2117898122        5.4856196970       17.3171007280
  N         3.0246189001       17.5927032298        6.7756088908
  C         1.7078881465       17.3199391148        6.5017969943
  N        13.8763273173       17.5784087028       17.5784077627
  C        12.5577093439       17.3112981594       17.3112956707
  N        15.9811828741        3.0441390847        5.1982681285
  C        16.2543254517        1.7266373731        5.4672717359
  N        16.0216333042       13.8679089196       16.0186798187
  C        16.2887323982       12.5497872547       16.2883450604
  N        16.0275695383       19.7272890432       17.5742129462
  C        16.2922199660       21.0452346725       17.3016521318
  N        15.9929685981        8.9109485377        6.7564997008
  C        16.2653756079       10.2281479888        6.4866580072
  N         6.7360985290       19.7521745439        5.2264755102
  C         6.4594301573       21.0692382849        5.4936643501
  N         6.7413352977        8.9284287707       16.0377657312
  C         6.4755019186       10.2467748250       16.3086292762
  N         6.7439110666        3.0686164076       17.6019522527
  C         6.4796123085        1.7497225975       17.3311718636
  N         6.7334431578       13.8861963489        6.7731846548
  C         6.4603481721       12.5689584126        6.5044149498
  N         5.1874060358       16.0476506456        3.0632396370
  C         5.4629572090       16.3165454325        1.7465088999
  N         5.1798598076        5.2154792895       13.8886865505
  C         5.4455142794        5.4878895502       12.5704313246
  N        17.5806525282       16.0158646579       19.7302942929
  C        17.3064621880       16.2846310346       21.0475586630
  N        17.5434488897        5.1963940454        8.9083469149
  C        17.2783766958        5.4684012341       10.2263669104
  N         5.1780660940        6.7798375123       19.7483414807
  C         5.4426430861        6.5083015480       21.0668975893
  N         5.1845193886       17.5925574242        8.9320236470
  C         5.4593727097       17.3239508677       10.2492770745
  N        17.5376468072        6.7535871637        3.0461339346
  C        17.2701130546        6.4830127227        1.7283444129
  N        17.5790364680       17.5734287168       13.8640822289
  C        17.3049323733       17.3035663019       12.5471055588
  N         5.1604427316        3.0663783541        6.7754477663
  C         5.4332401008        1.7486783760        6.5062891498
  N         5.2008607810       13.8893363526       17.5949719405
  C         5.4673124338       12.5708760630       17.3247658003
  N        17.5510504805       19.7308680777        6.7519915361
  C        17.2773420304       21.0477302693        6.4821564509
  N        17.5581897106        8.9079412958       17.5774474907
  C        17.2948233386       10.2261505971       17.3049692243
  N         5.2065246861       19.7474449022       16.0426711532
  C         5.4727329364       21.0654590541       16.3141256622
  N         5.1685841171        8.9313048744        5.2213194255
  C         5.4402349089       10.2488778711        5.4908256415
  N        17.5637942805        3.0474522457       16.0135614286
  C        17.2978108776        1.7289818427       16.2837094372
  N        17.5605465829       13.8645008962        5.2018441920
  C        17.2868351198       12.5472535176        5.4707406766
  N         3.0494614366       16.0440014270       17.5986998995
  C         1.7318433460       16.3087110791       17.3241762794
  N        13.8513631372       16.0183479236        6.7570330896
  C        12.5335394000       16.2921616265        6.4908567362
  N        19.7152768145       16.0225690297        5.2041402773
  C        21.0316126651       16.2969691170        5.4778100826
  N         8.9136571715       16.0351127196       16.0351100068
  C        10.2322948538       16.3020946671       16.3020916581
  N        19.7068873507        6.7584553267       17.5804705447
  C        21.0261264329        6.4930838356       17.3131681713
  N         8.8795227596        6.7725955894        6.7725967943
  C        10.1964423663        6.4996514293        6.4996529254
  N         3.0095067227        6.7831960359        5.2278398947
  C         1.6916219276        6.5100835222        5.4943805718
  N        13.8513634616        6.7570328884       16.0183475544
  C        12.5335395734        6.4908577351       16.2921618137
  N        15.9987598282        5.1935107494       19.7268381669
  C        16.2630921454        5.4651003915       21.0453218396
  N        16.0054935439       16.0194961578        8.9118758251
  C        16.2803098823       16.2883559552       10.2288175609
  N        16.0075579409       17.5691576838        3.0428828973
  C        16.2823656131       17.2996525296        1.7261063191
  N        16.0055633837        6.7586753532       13.8668316875
  C        16.2722325452        6.4875874836       12.5489230265
  N         6.7163998383        5.2203213100        3.0684132440
  C         6.4492284823        5.4909452866        1.7504738025
  N         6.7568918345       16.0392568755       13.8853880405
  C         6.4830880419       16.3091253944       12.5682822152
  N         6.7659924528       17.5950874086       19.7503009030
  C         6.4904248976       17.3279147206       21.0678239221
  N         6.7248593225        6.7763040872        8.9298219540
  C         6.4561452751        6.5063104792       10.2477800958
  N        19.7068874089       17.5804701809        6.7584559127
  C        21.0261263898       17.3131680482        6.4930837112
  N         8.9200782981       17.5907896268       17.5907862842
  C        10.2366758864       17.3177541441       17.3177504335
  N         3.0095069420        5.2278364236        6.7831938336
  C         1.6916220395        5.4943778396        6.5100823517
  N        13.8507419446        5.1989142049       17.5729247613
  C        12.5331867752        5.4746445148       17.3075309545
  N         3.0494611495       17.5987009395       16.0440034827
  C         1.7318431607       17.3241766028       16.3087128895
  N        13.8507421494       17.5729229812        5.1989122990
  C        12.5331869198       17.3075290935        5.4746420443
  N        19.7152771472        5.2041378360       16.0225712624
  C        21.0316129577        5.4778087939       16.2969704708
  N         8.8731839665        5.2170899985        5.2170898109
  C        10.1919618818        5.4839773393        5.4839779829
  N         6.7659920487       19.7503022943       17.5950878295
  C         6.4904245717       21.0678254095       17.3279154437
  N         6.7248611949        8.9298224609        6.7763028439
  C         6.4561472961       10.2477806885        6.5063092829
  N         6.7164005330        3.0684137819        5.2203193714
  C         6.4492301712        1.7504741751        5.4909439028
  N         6.7568934426       13.8853889076       16.0392543898
  C         6.4830900327       12.5682829616       16.3091233598
  N        16.0075567132        3.0428826363       17.5691585051
  C        16.2823643314        1.7261059625       17.2996534758
  N        16.0055616248       13.8668312093        6.7586757896
  C        16.2722295256       12.5489225180        6.4875866709
  N        15.9987598304       19.7268370222        5.1935104894
  C        16.2630917950       21.0453206923        5.4651005775
  N        16.0054945565        8.9118749648       16.0194949455
  C        16.2803111784       10.2288167077       16.2883544136
  N        17.5510505471        6.7519916865       19.7308691968
  C        17.2773425754        6.4821562396       21.0477314709
  N        17.5581891794       17.5774482922        8.9079422747
  C        17.2948223091       17.3049703516       10.2261515508
  N         5.1604395480        6.7754471663        3.0663784576
  C         5.4332368049        6.5062889145        1.7486782996
  N         5.2008586785       17.5949737875       13.8893356619
  C         5.4673100839       17.3247674443       12.5708752493
  N        17.5637955182       16.0135606956        3.0474526714
  C        17.2978121024       16.2837086248        1.7289822513
  N        17.5605486824        5.2018441038       13.8645014658
  C        17.2868383053        5.4707415259       12.5472540154
  N         5.2065259762       16.0426698322       19.7474432198
  C         5.4727339863       16.3141242356       21.0654573874
  N         5.1685829451        5.2213199626        8.9313042449
  C         5.4402334079        5.4908263243       10.2488772667
  N        17.5806520066       19.7302938151       16.0158658471
  C        17.3064614276       21.0475582362       16.2846320437
  N        17.5434460550        8.9083464366        5.1963928362
  C        17.2783730203       10.2263663212        5.4683995426
  N         5.1874056226        3.0632413118       16.0476521069
  C         5.4629566890        1.7465106154       16.3165470091
  N         5.1798603188       13.8886871039        5.2154792889
  C         5.4455154291       12.5704319788        5.4878892831
  N        17.5376452355        3.0461325983        6.7535892800
  C        17.2701117339        1.7283432129        6.4830141924
  N        17.5790367526       13.8640810665       17.5734290021
  C        17.3049333041       12.5471044773       17.3035656942
  N         5.1780685862       19.7483416705        6.7798370138
  C         5.4426460615       21.0668977206        6.5083013278
  N         5.1845208197        8.9320246383       17.5925569723
  C         5.4593745317       10.2492779245       17.3239501027
  N        19.6926637118        6.7577619562        5.2014825782
  C        21.0102579063        6.4971626210        5.4813599667
  N         8.8939610296        6.7737646354       16.0339262434
  C        10.2118713645        6.4994505762       16.2996197075
  N         3.0246187983        6.7756116996       17.5927016945
  C         1.7078880825        6.5017988960       17.3199382598
  N        13.8375669255        6.7600267512        6.7600290151
  C        12.5183721156        6.4931248334        6.4931267908
  N         3.0317736125       16.0409701765        5.2160087246
  C         1.7129971367       16.3060342435        5.4843594524
  N        13.8698696483       16.0226991485       16.0226996667
  C        12.5533237071       16.2956812940       16.2956798240
  N        19.7335149449       16.0200576248       17.5764019757
  C        21.0510287398       16.2970660811       17.3128531757
  N         8.8939609100       16.0339277366        6.7737639209
  C        10.2118712175       16.2996200731        6.4994490523
  N         6.7439102688       17.6019520133        3.0686147077
  C         6.4796119899       17.3311711382        1.7497209477
  N         6.7334418635        6.7731852596       13.8861954305
  C         6.4603464857        6.5044157169       12.5689576143
  N         6.7360976572        5.2264776988       19.7521744495
  C         6.4594284451        5.4936658595       21.0692381049
  N         6.7413345482       16.0377669808        8.9284283958
  C         6.4755005461       16.3086304898       10.2467743061
  N        16.0275696925       17.5742114784       19.7272895757
  C        16.2922206413       17.3016509077       21.0452351039
  N        15.9929713637        6.7565009351        8.9109492666
  C        16.2653790444        6.4866596303       10.2281486668
  N        15.9811837597        5.1982667087        3.0441400731
  C        16.2543262240        5.4672706981        1.7266383924
  N        16.0216325133       16.0186801109       13.8679096804
  C        16.2887312254       16.2883461029       12.5497881226
 Zn        14.7247925569       14.7272751174       14.7272756771
 Br        13.4068246227       13.4150347615       13.4150352976
 Zn        14.6862567388        3.9064795371        3.9064801984
 Br        13.3670512788        2.5947422969        2.5947431116
 Zn         3.8943873495       14.7562886915        3.9188467529
 Br         2.5798710259       13.4407955930        2.6046517502
 Zn         3.8943872002        3.9188476015       14.7562892857
 Br         2.5798708648        2.6046517517       13.4407969858
 Zn         8.0282196751        8.0638905514       14.7430873176
 Br         9.3430733812        9.3759571960       13.4254866842
 Zn         8.0331598820       18.8904696397        3.9390636421
 Br         9.3467124094       20.2069255167        2.6240438142
 Zn        18.8311831278        8.0475733894        3.9022441224
 Br        20.1489416916        9.3582643626        2.5875464008
 Zn        18.8739018266       18.8690115112       14.7223711187
 Br        20.1886907406       20.1807621198       13.4063919794
 Zn         8.0282200234       14.7430900067        8.0638905158
 Br         9.3430742578       13.4254894098        9.3759567845
 Zn         8.0331598381        3.9390660174       18.8904700996
 Br         9.3467122688        2.6240470932       20.2069269152
 Zn        18.8739021245       14.7223696907       18.8690121225
 Br        20.1886904049       13.4063908299       20.1807636856
 Zn        18.8311833482        3.9022429457        8.0475736690
 Br        20.1489415982        2.5875454279        9.3582652037
 Zn        14.7050377692        8.0531668422        8.0531677512
 Br        13.3915443144        9.3682713393        9.3682724636
 Zn        14.7370062470       18.8714155507       18.8714164555
 Br        13.4250444136       20.1868378554       20.1868390473
 Zn         3.8885786158        8.0697162829       18.8819283870
 Br         2.5747477828        9.3877323768       20.1946498747
 Zn         3.8885787564       18.8819291336        8.0697143015
 Br         2.5747478492       20.1946508863        9.3877300517
 Zn        14.7136086278       14.7255126902        8.0531135686
 Br        13.3971988811       13.4140532068        9.3682634659
 Zn        14.7122190609        3.8992900580       18.8626005363
 Br        13.3958812475        2.5845387637       20.1748672129
 Zn         3.9088791630       14.7541180085       18.8869675847
 Br         2.5974503950       13.4387555968       20.2043972619
 Zn         3.8735717468        3.9337091802        8.0687399869
 Br         2.5601898416        2.6193011949        9.3861559101
 Zn         8.0171083667        8.0648594948        8.0648595470
 Br         9.3375210421        9.3768693070        9.3768697321
 Zn         8.0605998154       18.8841308719       18.8841302792
 Br         9.3779092333       20.1974879955       20.1974871281
 Zn        18.8409900961        8.0486831175       18.8760232225
 Br        20.1596598947        9.3589723009       20.1909011085
 Zn        18.8409901386       18.8760230713        8.0486834959
 Br        20.1596597666       20.1909018934        9.3589718786
 Zn        14.7136091604        8.0531127807       14.7255120543
 Br        13.3971992591        9.3682621988       13.4140522475
 Zn        14.7122195024       18.8625992288        3.8992894349
 Br        13.3958821503       20.1748655453        2.5845372751
 Zn         3.8735704688        8.0687406733        3.9337108726
 Br         2.5601885972        9.3861564258        2.6193027099
 Zn         3.9088777766       18.8869688314       14.7541195758
 Br         2.5974485996       20.2043984812       13.4387574636
 Zn         8.0505874523       14.7449838580       14.7449801093
 Br         9.3579524536       13.4268357607       13.4268327056
 Zn         8.0078169053        3.9284751611        3.9284727674
 Br         9.3166685516        2.6105790176        2.6105769370
 Zn        18.8590388527       14.7234945647        3.9110464767
 Br        20.1730009709       13.4070666172        2.5988589111
 Zn        18.8590391543        3.9110449074       14.7234957577
 Br        20.1730013499        2.5988563672       13.4070689422
 Zn         5.9577213362        6.0011648567       16.8207881526
 Zn        16.8091590388       16.7946107978       16.7946129145
 Zn        16.7649146519        5.9740576229        5.9740593780
 Zn         5.9577213224       16.8207883929        6.0011637820
 Zn         5.9447095091        6.0014037083        6.0014034962
 Zn        16.7778541858       16.7938565098        5.9744530370
 Zn         5.9897402255       16.8203595676       16.8203588947
 Zn        16.7778541999        5.9744516505       16.7938575206
  N         3.7748884956        5.9970768532       16.8187638969
  N        14.5802640682        5.9801428394        5.9801444086
  N        18.9872327833       16.7946057405       16.7946069943
  N         8.1470392950       16.8164659725        6.0008988148
  N        18.9461995969        5.9744654267        5.9744662585
  N         8.1470392816        6.0009005842       16.8164654670
  N         3.7748884134       16.8187645261        5.9970747438
  N        14.6200937435       16.7991237875       16.7991245874
  N        16.7583821611        3.7917677843        5.9761867832
  N        16.8021332700       14.6125782031       16.7959550799
  N        16.8066262781       18.9818662735       16.7963145770
  N        16.7666836887        8.1625850076        5.9760670900
  N         5.9601490248       19.0036400942        6.0044792338
  N         5.9605682483        8.1836404648       16.8144815914
  N         5.9627425796        3.8128567151       16.8252505398
  N         5.9586763819       14.6342437423        5.9934942796
  N         5.9627422673       16.8252498789        3.8128550475
  N         5.9586757528        5.9934945073       14.6342430445
  N        16.8066264773       16.7963131260       18.9818668370
  N        16.7666860664        5.9760679999        8.1625856657
  N         5.9601477689        6.0044809136       19.0036399659
  N         5.9605674544       16.8144824595        8.1836397447
  N        16.7583833835        5.9761848437        3.7917689742
  N        16.8021329889       16.7959546133       14.6125792067
  N         5.9373581404        3.8142135347        5.9975729110
  N         5.9808214266       14.6340784503       16.8172821491
  N        16.7774526154       18.9818662300        5.9720851998
  N        16.7790806830        8.1628453550       16.7994627925
  N         5.9885990030       19.0023664279       16.8176934582
  N         5.9459389933        8.1839433116        5.9989066233
  N        16.7834965365        3.7917851858       16.7912845354
  N        16.7848089144       14.6122493868        5.9809928525
  N         3.7968487682       16.8237423963       16.8237427760
  N        14.5974294640       16.7934904649        5.9755294936
  N        18.9644254907       16.7998261129        5.9793181805
  N         8.1702828022       16.8144514284       16.8144486582
  N        18.9644256402        5.9793162262       16.7998276803
  N         8.1295251553        5.9963084427        5.9963085826
  N         3.7563539235        6.0068653027        6.0068658189
  N        14.5974295163        5.9755298631       16.7934909517
  N        16.7774523766        5.9720856042       18.9818673597
  N        16.7790800662       16.7994636647        8.1628462862
  N        16.7834976382       16.7912837472        3.7917855895
  N        16.7848102301        5.9809920677       14.6122499176
  N         5.9373566102        5.9975736506        3.8142133280
  N         5.9808198349       16.8172844490       14.6340776955
  N         5.9885998803       16.8176926971       19.0023649054
  N         5.9459376746        5.9989073976        8.1839427500
  C        11.3898816166       15.7490685232       15.7490664793
  H        11.3852251164       14.9735653178       14.9735639114
  C        11.3496580084        4.9310371236        4.9310376380
  H        11.3446494278        4.1554851216        4.1554849964
  C         0.5558878632       15.7520327730        4.9312529974
  H         0.5620383100       14.9769130403        4.1553996923
  C         0.5558883046        4.9312519416       15.7520344918
  H         0.5620391350        4.1553975522       14.9769157300
  C        11.3729140259        7.0442729098       15.7457940380
  H        11.3733237837        7.8193715650       14.9698734662
  C        11.3721284678       17.8621983703        4.9306997576
  H        11.3714930665       18.6382622593        4.1556926598
  C         0.5309967293        7.0544199083        4.9394066713
  H         0.5311132672        7.8303861555        4.1642874500
  C         0.5715560267       17.8689641729       15.7536445736
  H         0.5719304529       18.6452235117       14.9788755392
  C        11.3729136416       15.7457948521        7.0442725943
  H        11.3733230071       14.9698757457        7.8193725990
  C        11.3721281041        4.9307039148       17.8622011155
  H        11.3714923240        4.1556982243       18.6382665284
  C         0.5715563503       15.7536414409       17.8689628701
  H         0.5719310343       14.9788708253       18.6452206123
  C         0.5309968650        4.9394017768        7.0544165699
  H         0.5311133747        4.1642796495        7.8303799166
  C        11.3603890902        7.0458663466        7.0458686115
  H        11.3646678156        7.8214048205        7.8214077179
  C        11.4001436517       17.8642834897       17.8642794307
  H        11.4046056331       18.6397846365       18.6397796713
  C         0.5434892623        7.0475079220       17.8657017971
  H         0.5378562639        7.8234509194       18.6408068877
  C         0.5434894646       17.8657030495        7.0475061616
  H         0.5378567542       18.6408091352        7.8234480665
  C        15.7350892848       11.3911937762       15.7382143511
  H        14.9595136233       11.3940899206       14.9628113542
  C        15.7089625401        0.5644724983        4.9165476081
  H        14.9332727630        0.5619022908        4.1411164794
  C         4.8929486149       11.4102279834        4.9398748906
  H         4.1175057269       11.4109464663        4.1643055546
  C         4.9171821506        0.5843178526       15.7665856636
  H         4.1402487184        0.5815780978       14.9924471382
  C        15.7199205108       11.3898559416        7.0378193599
  H        14.9455023997       11.3919840057        7.8145112843
  C        15.7376560395        0.5638629449       17.8505524435
  H        14.9623366336        0.5609138930       18.6262783185
  C         4.9138932964       11.4116975579       17.8741466064
  H         4.1385839367       11.4141328317       18.6498622193
  C         4.8875365854        0.5861093913        7.0562714650
  H         4.1115924557        0.5832749679        7.8313928106
  C         7.0291406918       11.4058948842       15.7593759101
  H         7.8045756956       11.4033648011       14.9837544989
  C         7.0037636092        0.5915411523        4.9423473758
  H         7.7790962329        0.5944160111        4.1666843804
  C        17.8312944428       11.3853851084        4.9187465141
  H        18.6053954964       11.3830985426        4.1417688116
  C        17.8509829199        0.5700212952       15.7335813360
  H        18.6252640367        0.5728918153       14.9568777432
  C         7.0076407659       11.4078102386        7.0554593509
  H         7.7832488886       11.4070440393        7.8309123314
  C         7.0352495992        0.5905398426       17.8786267189
  H         7.8113598675        0.5934877965       18.6535135050
  C        17.8499792435       11.3846310914       17.8537999846
  H        18.6255806564       11.3814147944       18.6292354606
  C        17.8229289048        0.5694947260        7.0328475618
  H        18.5980549505        0.5718590435        7.8088537809
  C        15.7350875613       15.7382159766       11.3911945506
  H        14.9595115352       14.9628134437       11.3940904631
  C        15.7089630517        4.9165471958        0.5644734904
  H        14.9332729966        4.1411162564        0.5619031196
  C         4.9171834935       15.7665835397        0.5843160149
  H         4.1402508514       14.9924442155        0.5815759106
  C         4.8929475234        4.9398750605       11.4102273533
  H         4.1175051403        4.1643052227       11.4109457971
  C         7.0291391932       15.7593776402       11.4058945718
  H         7.8045745129       14.9837565269       11.4033651981
  C         7.0037626447        4.9423495116        0.5915408285
  H         7.7790964136        4.1666876644        0.5944155058
  C        17.8509840742       15.7335803573        0.5700216707
  H        18.6252651191       14.9568767859        0.5728920401
  C        17.8312980847        4.9187481250       11.3853855705
  H        18.6053992026        4.1417703732       11.3830988392
  C        15.7199239806        7.0378207039       11.3898566099
  H        14.9455056723        7.8145125133       11.3919848156
  C        15.7376569038       17.8505514411        0.5638634148
  H        14.9623374396       18.6262771492        0.5609145116
  C         4.8875324193        7.0562704658        0.5861093282
  H         4.1115871004        7.8313906163        0.5832749938
  C         4.9138908923       17.8741475195       11.4116964283
  H         4.1385812029       18.6498627987       11.4141311219
  C         7.0076385906        7.0554606999       11.4078095623
  H         7.7832464237        7.8309139688       11.4070433779
  C         7.0352492470       17.8786263850        0.5905384061
  H         7.8113589977       18.6535136816        0.5934865973
  C        17.8229299237        7.0328464893        0.5694960386
  H        18.5980562674        7.8088525134        0.5718606212
  C        17.8499783704       17.8538009434       11.3846322078
  H        18.6255799331       18.6292361479       11.3814161980
 Xe         1.0885138341       10.1371067658       10.1371053946
