     409
 i =      56, E =    -5133.8795034513
  N         3.0182278403        5.2191235490       16.0463343135
  C         1.6987397327        5.4860257782       16.3094680973
  N        13.8024676724        5.2030374216        5.2030380532
  C        12.4863074439        5.4777968024        5.4777978255
  N        19.7228840511       17.5761296050       16.0200948028
  C        21.0405295720       17.3156963316       16.2999192147
  N         8.8800352485       17.6022290512        5.2264764698
  C        10.1978493398       17.3233375218        5.4881947306
  N        19.6672181840        5.2012612155        6.7567808361
  C        20.9846190468        5.4837071151        6.4992990160
  N         8.8800348645        5.2264780361       17.6022299770
  C        10.1978489839        5.4881963396       17.3233386247
  N         3.0076446659       17.5965669868        6.7796236774
  C         1.6915547440       17.3227796446        6.5039327314
  N        13.8664772037       17.5771775611       17.5771772693
  C        12.5478123368       17.3108049010       17.3108037174
  N        15.9556977691        3.0422831412        5.1977372534
  C        16.2310849825        1.7251444486        5.4665828718
  N        16.0119595483       13.8661057068       16.0173432086
  C        16.2787824547       12.5480382503       16.2873285562
  N        16.0173104149       19.7252769576       17.5730293632
  C        16.2809562145       21.0432576618       17.3000849353
  N        15.9670761416        8.9094299073        6.7548764997
  C        16.2415146552       10.2262806768        6.4849048800
  N         6.7181067033       19.7613205048        5.2352940317
  C         6.4387290943       21.0778383087        5.5026783961
  N         6.7267623939        8.9335679151       16.0464621440
  C         6.4613465076       10.2519954397       16.3172116390
  N         6.7294732167        3.0749898534       17.6118537257
  C         6.4667000673        1.7559232094       17.3405131725
  N         6.7177022227       13.8916941214        6.7813161719
  C         6.4404818109       12.5745795317        6.5150815249
  N         5.1754569318       16.0551371809        3.0687919908
  C         5.4510959961       16.3248583650        1.7522398983
  N         5.1639261487        5.2241968050       13.8956992997
  C         5.4251621409        5.4990845962       12.5772942830
  N        17.5695225006       16.0139425894       19.7287179598
  C        17.2945254950       16.2823891202       21.0459347191
  N        17.5185951479        5.1951126549        8.9049222407
  C        17.2547229382        5.4668688993       10.2231726303
  N         5.1587029129        6.7873278971       19.7541063499
  C         5.4212650681        6.5166457268       21.0733587124
  N         5.1684726534       17.5997740575        8.9374759216
  C         5.4447086492       17.3320422544       10.2546961722
  N        17.5138779409        6.7517618385        3.0465763090
  C        17.2477485855        6.4813912500        1.7285348871
  N        17.5693714572       17.5720124048       13.8626697859
  C        17.2949912153       17.3026143538       12.5455734241
  N         5.1320724953        3.0729186138        6.7844049775
  C         5.4073738433        1.7554955524        6.5154484249
  N         5.1879439922       13.8948535628       17.6028873450
  C         5.4541697033       12.5763243535       17.3331466742
  N        17.5368994671       19.7315664925        6.7498811995
  C        17.2598231480       21.0478999607        6.4807686010
  N        17.5461532133        8.9062965576       17.5785049258
  C        17.2835180897       10.2245393041       17.3053549965
  N         5.1976827656       19.7533532678       16.0502845838
  C         5.4629600233       21.0713093546       16.3224249278
  N         5.1406302823        8.9387875540        5.2322261775
  C         5.4139256791       10.2558838106        5.5027729747
  N        17.5477697036        3.0458837374       16.0102016085
  C        17.2831643903        1.7272675390       16.2806343798
  N        17.5430197867       13.8609980579        5.2009519651
  C        17.2668535634       12.5441005269        5.4690883077
  N         3.0389167808       16.0520518278       17.6069218299
  C         1.7213605737       16.3158006092       17.3312862951
  N        13.8374311288       16.0188019745        6.7571508222
  C        12.5195499470       16.2940560527        6.4916121122
  N        19.7009516681       16.0207513215        5.2024506489
  C        21.0171389780       16.2966608175        5.4767954132
  N         8.9013213287       16.0384860077       16.0384846866
  C        10.2207610887       16.3038882222       16.3038867802
  N        19.6909196717        6.7562860054       17.5796656981
  C        21.0101635891        6.4918929773       17.3131358644
  N         8.8554058828        6.7774245593        6.7774254308
  C        10.1716051613        6.5032055945        6.5032068195
  N         2.9827322091        6.7914037622        5.2359732782
  C         1.6651853332        6.5169171122        5.5012609158
  N        13.8374310530        6.7571505452       16.0188020830
  C        12.5195497875        6.4916124740       16.2940564934
  N        15.9841920083        5.1919730536       19.7248791663
  C        16.2451345769        5.4642959469       21.0437760424
  N        15.9941455622       16.0200061077        8.9103246135
  C        16.2693054037       16.2884676666       10.2272421359
  N        15.9933236923       17.5670168633        3.0406243241
  C        16.2686936989       17.2974796027        1.7239694685
  N        15.9889739519        6.7582085304       13.8655052200
  C        16.2526299642        6.4861973868       12.5471986459
  N         6.6880635952        5.2290932074        3.0771245161
  C         6.4234978437        5.5002142204        1.7589246629
  N         6.7423532913       16.0461344771       13.8904987461
  C         6.4693203193       16.3169638157       12.5734315682
  N         6.7580724116       17.6018167725       19.7561770702
  C         6.4809277228       17.3359677951       21.0738283021
  N         6.6999705726        6.7847305497        8.9346394520
  C         6.4313036416        6.5168927134       10.2531014602
  N        19.6909200974       17.5796659039        6.7562862283
  C        21.0101639329       17.3131362919        6.4918926172
  N         8.9108824701       17.5938854582       17.5938832839
  C        10.2269745434       17.3195583237       17.3195561963
  N         2.9827322700        5.2359714502        6.7914023974
  C         1.6651853485        5.5012595376        6.5169162751
  N        13.8374818539        5.1982012805       17.5724507731
  C        12.5196732695        5.4751165710       17.3091260776
  N         3.0389166334       17.6069230495       16.0520523105
  C         1.7213604437       17.3312869816       16.3158008963
  N        13.8374822753       17.5724493062        5.1982002757
  C        12.5196736158       17.3091247084        5.4751152923
  N        19.7009514103        5.2024491285       16.0207522947
  C        21.0171387504        5.4767948848       16.2966613103
  N         8.8456914811        5.2226041782        5.2226047073
  C        10.1650413067        5.4876927840        5.4876937908
  N         6.7580718729       19.7561779374       17.6018173138
  C         6.4809268132       21.0738292324       17.3359685730
  N         6.6999712657        8.9346393874        6.7847303698
  C         6.4313042561       10.2531014367        6.5168927188
  N         6.6880635362        3.0771246140        5.2290922973
  C         6.4234983343        1.7589246713        5.5002134809
  N         6.7423537666       13.8904995868       16.0461326384
  C         6.4693208628       12.5734323875       16.3169622204
  N        15.9933222394        3.0406240036       17.5670174455
  C        16.2686924926        1.7239691898       17.2974802624
  N        15.9889733467       13.8655050210        6.7582088752
  C        16.2526286504       12.5471984401        6.4861970406
  N        15.9841916221       19.7248783345        5.1919738390
  C        16.2451335168       21.0437752568        5.4642973602
  N        15.9941458772        8.9103240956       16.0200056037
  C        16.2693059346       10.2272416341       16.2884668733
  N        17.5368999362        6.7498803548       19.7315671788
  C        17.2598241863        6.4807672403       21.0479007003
  N        17.5461534207       17.5785049567        8.9062970471
  C        17.2835177024       17.3053556423       10.2245398196
  N         5.1320712121        6.7844045925        3.0729189028
  C         5.4073724545        6.5154482771        1.7554957311
  N         5.1879434436       17.6028890232       13.8948527019
  C         5.4541690757       17.3331481896       12.5763234346
  N        17.5477708739       16.0102008458        3.0458840064
  C        17.2831654708       16.2806335620        1.7272677577
  N        17.5430204751        5.2009516625       13.8609983122
  C        17.2668548934        5.4690887155       12.5441006978
  N         5.1976837105       16.0502839116       19.7533521708
  C         5.4629612226       16.3224237451       21.0713082356
  N         5.1406299385        5.2322259709        8.9387875329
  C         5.4139253710        5.5027726660       10.2558838226
  N        17.5695219607       19.7287177296       16.0139434523
  C        17.2945248386       21.0459344408       16.2823900086
  N        17.5185935942        8.9049220677        5.1951116667
  C        17.2547211838       10.2231724375        5.4668678278
  N         5.1754557196        3.0687930274       16.0551387116
  C         5.4510947263        1.7522409766       16.3248600365
  N         5.1639261322       13.8956992837        5.2241972013
  C         5.4251622584       12.5772942947        5.4990850268
  N        17.5138766119        3.0465755637        6.7517636216
  C        17.2477470533        1.7285341547        6.4813931673
  N        17.5693716659       13.8626692764       17.5720121177
  C        17.2949919400       12.5455729262       17.3026135315
  N         5.1587044193       19.7541062054        6.7873275815
  C         5.4212666886       21.0733585315        6.5166454160
  N         5.1684730884        8.9374768915       17.5997737732
  C         5.4447091316       10.2546970686       17.3320414950
  N        19.6672181704        6.7567822473        5.2012631172
  C        20.9846190446        6.4992999277        5.4837085629
  N         8.8795527539        6.7769739799       16.0414608527
  C        10.1975744994        6.5015817935       16.3053196130
  N         3.0076442209        6.7796258046       17.5965656732
  C         1.6915543065        6.5039342982       17.3227786276
  N        13.8118885969        6.7595124004        6.7595135834
  C        12.4927745568        6.4936018587        6.4936031898
  N         3.0182280263       16.0463343772        5.2191226631
  C         1.6987399313       16.3094682277        5.4860251101
  N        13.8583939885       16.0212859855       16.0212866475
  C        12.5420526698       16.2951498906       16.2951494342
  N        19.7228842562       16.0200937683       17.5761291346
  C        21.0405297083       16.2999183924       17.3156958591
  N         8.8795529442       16.0414611798        6.7769736291
  C        10.1975747062       16.3053193862        6.5015810725
  N         6.7294737486       17.6118528015        3.0749887984
  C         6.4667008995       17.3405119783        1.7559221432
  N         6.7177017065        6.7813162938       13.8916939969
  C         6.4404813184        6.5150814501       12.5745794598
  N         6.7181061236        5.2352954317       19.7613205909
  C         6.4387282089        5.5026794014       21.0778383621
  N         6.7267622496       16.0464628132        8.9335673545
  C         6.4613462086       16.3172125771       10.2519947691
  N        16.0173105669       17.5730287302       19.7252773621
  C        16.2809569055       17.3000840707       21.0432579875
  N        15.9670775704        6.7548773985        8.9094302228
  C        16.2415164078        6.4849059173       10.2262809531
  N        15.9556987925        5.1977357855        3.0422838474
  C        16.2310863708        5.4665811178        1.7251451623
  N        16.0119588555       16.0173439891       13.8661060310
  C        16.2787817427       16.2873294003       12.5480386365
 Zn        14.7166132709       14.7258107536       14.7258108529
 Br        13.3952036515       13.4152053275       13.4152052231
 Zn        14.6609863261        3.9056466998        3.9056472259
 Br        13.3391163982        2.5952600409        2.5952604820
 Zn         3.8848335634       14.7618940052        3.9249759631
 Br         2.5682556135       13.4490917053        2.6094297311
 Zn         3.8848331759        3.9249765393       14.7618943640
 Br         2.5682551280        2.6094299552       13.4490924803
 Zn         8.0137480008        8.0681168821       14.7533818619
 Br         9.3270660131        9.3801925908       13.4336394847
 Zn         8.0146649977       18.9030921878        3.9456309741
 Br         9.3301339659       20.2188372873        2.6320717876
 Zn        18.8108752555        8.0453190302        3.9018893175
 Br        20.1262116046        9.3560636680        2.5854831675
 Zn        18.8645334288       18.8677028215       14.7215820030
 Br        20.1786703874       20.1789885173       13.4044500716
 Zn         8.0137481722       14.7533825479        8.0681167950
 Br         9.3270666090       13.4336405737        9.3801924618
 Zn         8.0146646666        3.9456320156       18.9030928999
 Br         9.3301338359        2.6320733667       20.2188382164
 Zn        18.8645337835       14.7215813307       18.8677027179
 Br        20.1786702321       13.4044493293       20.1789888831
 Zn        18.8108753753        3.9018889063        8.0453191243
 Br        20.1262116947        2.5854831323        9.3560642057
 Zn        14.6751633649        8.0526741656        8.0526744904
 Br        13.3676680345        9.3701818613        9.3701824029
 Zn        14.7261520110       18.8703951759       18.8703959058
 Br        13.4168553069       20.1869586812       20.1869591375
 Zn         3.8671754172        8.0747907509       18.8846842222
 Br         2.5559680844        9.3948101313       20.1980679266
 Zn         3.8671758349       18.8846846738        8.0747893588
 Br         2.5559684848       20.1980685184        9.3948086293
 Zn        14.7018827839       14.7264953451        8.0535633087
 Br        13.3838642900       13.4171298203        9.3697072251
 Zn        14.6999612256        3.8976342592       18.8601960689
 Br        13.3824828180        2.5830054490       20.1721409622
 Zn         3.8996143721       14.7613605045       18.8946608219
 Br         2.5875664233       13.4483155472       20.2139346560
 Zn         3.8442561621        3.9416800329        8.0780784675
 Br         2.5325662442        2.6275882211        9.3965962872
 Zn         7.9990715473        8.0688361546        8.0688364037
 Br         9.3167688082        9.3820884753        9.3820886668
 Zn         8.0557786780       18.8874090544       18.8874085480
 Br         9.3736180206       20.2006308989       20.2006300289
 Zn        18.8290758854        8.0458899992       18.8771541087
 Br        20.1469560590        9.3560975386       20.1924193133
 Zn        18.8290761358       18.8771539917        8.0458904471
 Br        20.1469563285       20.1924196756        9.3560974843
 Zn        14.7018829122        8.0535627293       14.7264951740
 Br        13.3838643306        9.3697064193       13.4171294819
 Zn        14.6999620749       18.8601947609        3.8976340702
 Br        13.3824838831       20.1721394270        2.5830047185
 Zn         3.8442559334        8.0780788564        3.9416806537
 Br         2.5325657357        9.3965965000        2.6275889786
 Zn         3.8996139816       18.8946620704       14.7613606148
 Br         2.5875657713       20.2139357566       13.4483157478
 Zn         8.0316954029       14.7511327993       14.7511308234
 Br         9.3387697499       13.4321775118       13.4321752892
 Zn         7.9782906487        3.9365398364        3.9365392796
 Br         9.2863813913        2.6180045990        2.6180041005
 Zn        18.8388913354       14.7205226742        3.9106234161
 Br        20.1554383072       13.4044825867        2.5997968654
 Zn        18.8388908826        3.9106223386       14.7205233336
 Br        20.1554377114        2.5997951363       13.4044838143
 Zn         5.9477626154        6.0052392211       16.8262174166
 Zn        16.7916446640       16.7915817979       16.7915826390
 Zn        16.7309950965        5.9716121606        5.9716128556
 Zn         5.9477628530       16.8262173838        6.0052385711
 Zn         5.9099684068        6.0070050577        6.0070051107
 Zn        16.7683683655       16.7921850083        5.9724558259
 Zn         5.9725852378       16.8249954628       16.8249948232
 Zn        16.7683680842        5.9724547834       16.7921857860
  N         3.7598377682        6.0014318619       16.8240276093
  N        14.5533731803        5.9791167878        5.9791175361
  N        18.9763699494       16.7928696458       16.7928700206
  N         8.1330747459       16.8257021703        6.0053976257
  N        18.9201947093        5.9722662324        5.9722664500
  N         8.1330744673        6.0053984208       16.8257022604
  N         3.7598380679       16.8240282973        6.0014301970
  N        14.6090947432       16.7974669510       16.7974677233
  N        16.7325364208        3.7909437863        5.9752350343
  N        16.7923418087       14.6108631044       16.7944871378
  N        16.7961481163       18.9800495796       16.7949285406
  N        16.7402387957        8.1601998126        5.9743984174
  N         5.9427198866       19.0110912313        6.0123815448
  N         5.9448848840        8.1889554984       16.8221498369
  N         5.9492298201        3.8187708431       16.8338328018
  N         5.9451250600       14.6405153136        6.0003416713
  N         5.9492305932       16.8338316979        3.8187697897
  N         5.9451248028        6.0003416372       14.6405152820
  N        16.7961484040       16.7949277520       18.9800499164
  N        16.7402400683        5.9743992285        8.1602000631
  N         5.9427189830        6.0123825968       19.0110913576
  N         5.9448846606       16.8221501650        8.1889547235
  N        16.7325373934        5.9752335922        3.7909445033
  N        16.7923414658       16.7944874156       14.6108635666
  N         5.9077124052        3.8217802304        6.0060279212
  N         5.9668501503       14.6394531788       16.8242521531
  N        16.7647588277       18.9812013028        5.9697899077
  N        16.7670466108        8.1612541841       16.8005646560
  N         5.9806971799       19.0082613415       16.8241551823
  N         5.9192060138        8.1902072518        6.0076975245
  N        16.7678556998        3.7899255239       16.7883884451
  N        16.7690908363       14.6099291107        5.9807028057
  N         3.7860350058       16.8322161103       16.8322156783
  N        14.5839043124       16.7926852062        5.9747053985
  N        18.9495529909       16.7981325973        5.9771305171
  N         8.1593045760       16.8183524412       16.8183507770
  N        18.9495526688        5.9771293205       16.7981332710
  N         8.1032331193        6.0021822121        6.0021826184
  N         3.7293631961        6.0155565322        6.0155567238
  N        14.5839040705        5.9747055074       16.7926859060
  N        16.7647588549        5.9697893712       18.9812020238
  N        16.7670467779       16.8005647067        8.1612547403
  N        16.7678570176       16.7883877852        3.7899258445
  N        16.7690910351        5.9807021081       14.6099293316
  N         5.9077119591        6.0060281698        3.8217803354
  N         5.9668497111       16.8242539470       14.6394523206
  N         5.9806977775       16.8241548901       19.0082603225
  N         5.9192055013        6.0076975660        8.1902072847
  C        11.3773388018       15.7497477266       15.7497470326
  H        11.3712190496       14.9742469781       14.9742467900
  C        11.3210969835        4.9330335027        4.9330344446
  H        11.3138859234        4.1575478944        4.1575485635
  C         0.5429899987       15.7537632740        4.9315160369
  H         0.5516076795       14.9787906282        4.1555783975
  C         0.5429899209        4.9315156196       15.7537639071
  H         0.5516078765        4.1555772933       14.9787919398
  C        11.3582645526        7.0455191039       15.7494848440
  H        11.3578256626        7.8205489629       14.9734799577
  C        11.3589811150       17.8659863177        4.9323159389
  H        11.3591838092       18.6421055285        4.1574177681
  C         0.5048847302        7.0595138907        4.9441419016
  H         0.5050006805        7.8357756577        4.1693676395
  C         0.5610002501       17.8743425383       15.7590547474
  H         0.5614740950       18.6509602256       14.9846232244
  C        11.3582646139       15.7494849896        7.0455190419
  H        11.3578255196       14.9734809298        7.8205497248
  C        11.3589806172        4.9323180438       17.8659881790
  H        11.3591830219        4.1574206821       18.6421081872
  C         0.5610005450       15.7590535239       17.8743412808
  H         0.5614746814       14.9846211103       18.6509580822
  C         0.5048847633        4.9441391774        7.0595117249
  H         0.5050007175        4.1693631997        7.8357717865
  C        11.3365608214        7.0481553810        7.0481569003
  H        11.3432361116        7.8236777203        7.8236794290
  C        11.3913884123       17.8649494933       17.8649472178
  H        11.3976385999       18.6404663156       18.6404634096
  C         0.5259606772        7.0481130538       17.8671258622
  H         0.5178914048        7.8241896137       18.6421072101
  C         0.5259612296       17.8671271693        7.0481115425
  H         0.5178922218       18.6421092161        7.8241874217
  C        15.7246633050       11.3895456154       15.7376618180
  H        14.9490011543       11.3924085772       14.9622824246
  C        15.6876158354        0.5617731225        4.9163292069
  H        14.9111789238        0.5572277093        4.1417290078
  C         4.8687196351       11.4183322502        4.9523498260
  H         4.0930250594       11.4210204390        4.1770114271
  C         4.9062898033        0.5896160597       15.7750046826
  H         4.1292030135        0.5860151370       15.0010183276
  C        15.6981940259       11.3889888112        7.0362440173
  H        14.9241673493       11.3925002699        7.8132355399
  C        15.7255518175        0.5614111972       17.8490484158
  H        14.9506659416        0.5577896981       18.6252156984
  C         4.9002058170       11.4174456834       17.8826321759
  H         4.1250419915       11.4204055996       18.6584638434
  C         4.8637498957        0.5915518888        7.0647224805
  H         4.0873219731        0.5868793042        7.8392856724
  C         7.0153229860       11.4108387610       15.7676238201
  H         7.7905633671       11.4079964529       14.9917904496
  C         6.9806756331        0.6012642068        4.9516580465
  H         7.7559678998        0.6061067284        4.1758915655
  C        17.8093388786       11.3813920364        4.9169223021
  H        18.5833853583       11.3779651277        4.1399350609
  C        17.8372081903        0.5687846221       15.7303274995
  H        18.6106860891        0.5725527141       14.9528103973
  C         6.9852313498       11.4121326162        7.0660119384
  H         7.7617800622       11.4096727260        7.8404823024
  C         7.0237302255        0.5971060071       17.8876604598
  H         7.7995420541        0.6010717767       18.6628357417
  C        17.8393202178       11.3830581955       17.8535107209
  H        18.6148603168       11.3797900622       18.6289942764
  C        17.8031327897        0.5708243151        7.0312126813
  H        18.5785052808        0.5750776095        7.8068494022
  C        15.7246622671       15.7376630374       11.3895460457
  H        14.9489997921       14.9622839745       11.3924089490
  C        15.6876171341        4.9163275319        0.5617738699
  H        14.9111802195        4.1417273333        0.5572284994
  C         4.9062913839       15.7750028855        0.5896148920
  H         4.1292050099       15.0010161151        0.5860138005
  C         4.8687196516        4.9523491864       11.4183322672
  H         4.0930254036        4.1770104589       11.4210204736
  C         7.0153226633       15.7676251520       11.4108382178
  H         7.7905631628       14.9917918995       11.4079962887
  C         6.9806753741        4.9516593248        0.6012640922
  H         7.7559682735        4.1758934741        0.6061063615
  C        17.8372089721       15.7303265527        0.5687847875
  H        18.6106866946       14.9528092888        0.5725526813
  C        17.8093406168        4.9169231918       11.3813921674
  H        18.5833871554        4.1399360041       11.3779651086
  C        15.6981956696        7.0362448383       11.3889891068
  H        14.9241689598        7.8132363265       11.3925006340
  C        15.7255527848       17.8490477161        0.5614116394
  H        14.9506668914       18.6252149878        0.5577903997
  C         4.8637478212        7.0647219679        0.5915522055
  H         4.0873191737        7.8392844179        0.5868798666
  C         4.9002051448       17.8826332381       11.4174445712
  H         4.1250411765       18.6584647591       11.4204041086
  C         6.9852306557        7.0660120581       11.4121325829
  H         7.7617791801        7.8404826069       11.4096726952
  C         7.0237310091       17.8876595342        0.5971050834
  H         7.7995426168       18.6628350132        0.6010709895
  C        17.8031343350        7.0312107991        0.5708250737
  H        18.5785070067        7.8068473358        0.5750784189
  C        17.8393198193       17.8535113804       11.3830587138
  H        18.6148600806       18.6289947771       11.3797906397
 Xe         2.2357325776        9.9278252497        9.9278244420
