     409
 i =      56, E =    -5133.8633422117
  N         2.9249448929        5.2903016416       15.9556509728
  C         1.5997173493        5.5296599872       16.2211923499
  N        13.7334549104        5.0711371964        5.1107040760
  C        12.4149897258        5.3351308248        5.3882001349
  N        19.5268965187       17.5263894096       15.9778278261
  C        20.8451217692       17.2916015653       16.2731052439
  N         8.7402701616       17.6006865076        5.2492021238
  C        10.0543853596       17.2938266948        5.4974517791
  N        19.6026522933        5.1473701075        6.7284758089
  C        20.9186923872        5.4538805704        6.4884123058
  N         8.7714059766        5.2291635474       17.6352658814
  C        10.0880547722        5.4450380834       17.3143138305
  N         2.8532689590       17.5993426489        6.7811475594
  C         1.5401388279       17.3058480371        6.5094705703
  N        13.6859534483       17.5746426667       17.5922237456
  C        12.3617440239       17.3218633459       17.3353445161
  N        15.9092417648        2.9516327505        5.1293460769
  C        16.1669805511        1.6353043679        5.4137276850
  N        15.7873578057       13.8189653473       16.0159258165
  C        16.0657942857       12.4992194397       16.2754227977
  N        15.8634074463       19.6937245492       17.5567527151
  C        16.1366885760       21.0077574237       17.2741289713
  N        15.8543320085        8.8059823567        6.6715085865
  C        16.1236702168       10.1275535351        6.4173169051
  N         6.5687810185       19.7584205388        5.2294562852
  C         6.2952437930       21.0764504090        5.4922328012
  N         6.5421629391        8.9934848160       16.0868318883
  C         6.2541139026       10.3112870238       16.3452378245
  N         6.6062531633        3.1272276031       17.5529105020
  C         6.3250490127        1.8124023368       17.2877678485
  N         6.5294985310       13.8910899849        6.8114084997
  C         6.2659806718       12.5752789459        6.5209188201
  N         5.0390394106       16.0594127954        3.0837842655
  C         5.3068393134       16.3395138105        1.7691926540
  N         5.1548648912        5.3798210335       13.8583774916
  C         5.4342134825        5.6451318572       12.5420324763
  N        17.4074491300       15.9685104769       19.7071039499
  C        17.1448393026       16.2339853268       21.0277464407
  N        17.4441015196        5.0942456000        8.8521634427
  C        17.1819878818        5.3787725571       10.1682578232
  N         4.9900382483        6.7749600557       19.7290015839
  C         5.2526924032        6.4928083214       21.0445150547
  N         5.0046767634       17.6333251388        8.9447818668
  C         5.2796778111       17.3773189887       10.2644648126
  N        17.4524249899        6.6676917007        2.9884724840
  C        17.1812235493        6.4081345677        1.6694371614
  N        17.3577871440       17.5172607730       13.8433359032
  C        17.0852537524       17.2375211756       12.5293266251
  N         5.0502667523        3.0901710433        6.7865777741
  C         5.2983471078        1.7669202127        6.5145319115
  N         4.9698125612       13.9496320222       17.6431940895
  C         5.2314128766       12.6311916804       17.3663817414
  N        17.3991615769       19.6386158128        6.7474803013
  C        17.1484098455       20.9558926452        6.4602274400
  N        17.4073171480        8.8641475118       17.5220468355
  C        17.1156874650       10.1792316333       17.2626942257
  N         5.0101674979       19.8124042121       16.0452058686
  C         5.2952838159       21.1312765691       16.2963921050
  N         5.0391112126        8.9478366791        5.1379544276
  C         5.2870716921       10.2625307555        5.4437450532
  N        17.4488760881        2.9931089857       15.9707158197
  C        17.1665527627        1.6773715406       16.2404501468
  N        17.4222438261       13.7813020221        5.1792088846
  C        17.1494682985       12.4605707780        5.4343915229
  N         2.8481210646       16.1091215220       17.6301181342
  C         1.5303945365       16.3467305961       17.3360032354
  N        13.6826080648       15.9100706866        6.7171891122
  C        12.3662779098       16.2073660151        6.4646971425
  N        19.5671074756       15.9546137547        5.2015700730
  C        20.8795752593       16.2454986327        5.4784221712
  N         8.6953520469       16.0794432062       16.0878862322
  C        10.0181308339       16.3334957918       16.3474507968
  N        19.5766854487        6.7304309213       17.5167156651
  C        20.8978373840        6.4873003083       17.2433675205
  N         8.7879374562        6.6657481501        6.6706883277
  C        10.1019004368        6.3653561517        6.4136014238
  N         2.9049123998        6.8038091493        5.2395679047
  C         1.5915211177        6.5147948673        5.5058463598
  N        13.7249777894        6.6276001312       15.9225126723
  C        12.4081923834        6.3706613546       16.2121230253
  N        15.8922704899        5.1439271841       19.6691267514
  C        16.1659104900        5.4066164090       20.9860310006
  N        15.8125359495       15.9283040714        8.8929884612
  C        16.0721523914       16.2076178457       10.2122948746
  N        15.8595181502       17.4959635306        3.0347654033
  C        16.1344311606       17.2367102318        1.7163478852
  N        15.9185267947        6.6992010018       13.8032253830
  C        16.1840228277        6.4216457362       12.4856764812
  N         6.5395358409        5.1834366067        3.0283257735
  C         6.2642877659        5.4593863040        1.7151637714
  N         6.5531607936       16.1172271252       13.9160715302
  C         6.2922412615       16.3825074998       12.5953597361
  N         6.5689169133       17.6581378045       19.7750399770
  C         6.3116317146       17.3755858835       21.0930481258
  N         6.7351421997        6.8684711221        8.8841320439
  C         6.4608548089        6.6254896018       10.2073469126
  N        19.5380228369       17.4974803341        6.7691426066
  C        20.8600526362       17.2536261522        6.5013827661
  N         8.7240143061       17.6519859445       17.6255425374
  C        10.0379815847       17.3593277109       17.3531008962
  N         2.9227647735        5.2733070181        6.8202290747
  C         1.6008716819        5.5131408250        6.5355168867
  N        13.7296187745        5.1299674820       17.5336706748
  C        12.4105285348        5.3957938310       17.2656637384
  N         2.8404166507       17.6564097741       16.0665167015
  C         1.5244739365       17.3575681229       16.3159107639
  N        13.6940966806       17.4928422008        5.1886562578
  C        12.3749186632       17.2415579583        5.4679258157
  N        19.6040070757        5.1774767272       15.9578989663
  C        20.9174331616        5.4765422912       16.2230131220
  N         8.7674899242        5.1390167375        5.0912707815
  C        10.0899227426        5.3692096804        5.3793549422
  N         6.5595632828       19.8155926928       17.6091459711
  C         6.3036209360       21.1324317519       17.3197730573
  N         6.5886786779        8.9310393676        6.6958683387
  C         6.2966527590       10.2526227932        6.4651917672
  N         6.5688375087        3.0675579956        5.1948219326
  C         6.2941530532        1.7554633678        5.4794735447
  N         6.5022550008       13.9505667669       16.0661738405
  C         6.2313257652       12.6333543454       16.3369629895
  N        15.8920228305        3.0047315017       17.5255076226
  C        16.1527830033        1.6863795959       17.2577864219
  N        15.8554114532       13.7662052628        6.7245479889
  C        16.1263970036       12.4503627406        6.4428455402
  N        15.8538098420       19.6392651428        5.1826606048
  C        16.1384911214       20.9559980827        5.4390990656
  N        15.8298010515        8.8519463482       15.9887157050
  C        16.0844580231       10.1737796714       16.2624789547
  N        17.4330859416        6.7122476780       19.6724380786
  C        17.1723758626        6.4308042075       20.9894142125
  N        17.3711983040       17.4807359469        8.8948974426
  C        17.0920005010       17.2190332235       10.2109259359
  N         4.9912969920        6.7463702587        3.0404625444
  C         5.2526053611        6.4785204413        1.7219413205
  N         4.9909073648       17.6642373594       13.9030582468
  C         5.2718114857       17.3931650378       12.5872485337
  N        17.4182628691       15.9427532557        3.0282007469
  C        17.1495003337       16.2202868887        1.7108082343
  N        17.4607188294        5.1303764708       13.8084728776
  C        17.1908153102        5.3968887584       12.4899168463
  N         5.0049908690       16.1104710381       19.7754811892
  C         5.2903611924       16.3654690684       21.0915689773
  N         5.1707002811        5.3175568576        8.9087112665
  C         5.4425945472        5.6123031684       10.2208684272
  N        17.4002317255       19.6769691024       15.9830380368
  C        17.1428535231       20.9970241634       16.2492179091
  N        17.4241829083        8.8234991601        5.1315207536
  C        17.1482212138       10.1382744605        5.4105361219
  N         5.0811288988        3.1353941392       15.9678692454
  C         5.3259498231        1.8147609623       16.2558913943
  N         5.0013561625       13.9042635850        5.2296697197
  C         5.2667519450       12.5845012623        5.4904380251
  N        17.4621253454        2.9546498292        6.6889059792
  C        17.1795129645        1.6364353335        6.4325689369
  N        17.3713538931       13.8179101556       17.5428317246
  C        17.0994722463       12.5005316998       17.2728747760
  N         5.0145617860       19.7658586710        6.7877276842
  C         5.2855993976       21.0832021477        6.5139717159
  N         4.9989743723        8.9866224742       17.6529827012
  C         5.2479898288       10.3066119686       17.3704263044
  N        19.5946818447        6.6954652225        5.1644510400
  C        20.9124270003        6.4622214646        5.4654520686
  N         8.7684581186        6.7288980069       16.0297253194
  C        10.0865557383        6.4229239751       16.2628283929
  N         2.8864415498        6.8187940300       17.5363102501
  C         1.5766074690        6.5311409893       17.2504986241
  N        13.7385607907        6.5946684217        6.6970268966
  C        12.4213398339        6.3280002733        6.4248368233
  N         2.8795903030       16.0534472598        5.2164058848
  C         1.5587829263       16.2967035118        5.4878523021
  N        13.6520069807       16.0097305678       16.0457328740
  C        12.3399177166       16.2993186062       16.3266871593
  N        19.5366542173       15.9756051292       17.5387910467
  C        20.8517156433       16.2793546691       17.2922588171
  N         8.7216216875       16.0152635669        6.7729264381
  C        10.0434570506       16.2581808891        6.4929187745
  N         6.6031335297       17.6053517331        3.0927184250
  C         6.3281412683       17.3490129575        1.7737059820
  N         6.7027855835        6.9478451227       13.8588543427
  C         6.4461679116        6.6649720012       12.5391811461
  N         6.5516905940        5.2243489000       19.7243375967
  C         6.2695517298        5.4786100110       21.0401984700
  N         6.5681149301       16.0851000352        8.9545403374
  C         6.3004797162       16.3663282154       10.2719263421
  N        15.8657653353       17.5376530443       19.7202074659
  C        16.1363423010       17.2567325237       21.0355052064
  N        15.9024419391        6.6613440229        8.8436817568
  C        16.1752135041        6.4030388172       10.1634938616
  N        15.9078006006        5.1008170850        2.9793379925
  C        16.1734429928        5.3846692491        1.6643000313
  N        15.7876512828       15.9761774326       13.8570895704
  C        16.0609462564       16.2305623004       12.5358668310
 Zn        14.4905793509       14.7070236201       14.7467251122
 Br        13.1585059322       13.4038394962       13.4393581386
 Zn        14.6147023128        3.7933454388        3.8250491459
 Br        13.3031813997        2.4828958997        2.5039077689
 Zn         3.7365684855       14.7678950271        3.9213421692
 Br         2.4322484841       13.4497835767        2.6008698533
 Zn         3.8425466628        4.0477277078       14.6622602649
 Br         2.5521069597        2.7487003975       13.3090951524
 Zn         7.9445110160        8.1716085402       14.8887116097
 Br         9.5288044239        9.7296548154       14.3980987944
 Zn         7.8901855732       18.8967219635        3.9588357086
 Br         9.2189890041       20.1987377553        2.6477463860
 Zn        18.7297764507        7.9673142023        3.8504181906
 Br        20.0363060474        9.2986871345        2.5447913851
 Zn        18.6666488634       18.8082985325       14.6750512118
 Br        19.9862824772       20.1111612013       13.3551916321
 Zn         7.8292346394       14.7702136105        8.0809464759
 Br         9.1527921794       13.5062173078        9.4221677472
 Zn         7.8777356971        3.9466332004       18.8931542933
 Br         9.1633307344        2.6059789763       20.2074095864
 Zn        18.6779673533       14.6693478826       18.8247997613
 Br        20.0017107678       13.3535627174       20.1290753231
 Zn        18.7477318328        3.8197500558        7.9913640235
 Br        20.0704124162        2.5079534396        9.3012841502
 Zn        14.5940689852        7.9118244410        7.9623720359
 Br        13.3105436973        9.2222189916        9.3046076738
 Zn        14.5847677823       18.8492164347       18.8757803146
 Br        13.3002488542       20.1822957717       20.2017452743
 Zn         3.6928667229        8.0820220434       18.8901526992
 Br         2.3535659883        9.3565957370       20.2168690553
 Zn         3.7055448356       18.9072367499        8.0664753651
 Br         2.3889019789       20.2360675081        9.3660432255
 Zn        14.5498027355       14.6170739814        8.0094433940
 Br        13.2406110396       13.2969109785        9.3216153573
 Zn        14.5990191929        3.8492839528       18.8244995381
 Br        13.2765357811        2.5450680063       20.1410342564
 Zn         3.6938453640       14.8236379344       18.9356877391
 Br         2.3823364198       13.5099180360       20.2534462773
 Zn         3.8325967191        4.0084392474        8.1078838417
 Br         2.5313556398        2.7237803139        9.4629756691
 Zn         7.9902881582        8.0766030445        7.8583995108
 Br         9.5446455830        9.6106193342        8.4864561493
 Zn         7.8547151920       18.9525731053       18.9054388611
 Br         9.1837796527       20.2549135982       20.2184688765
 Zn        18.7102825898        8.0146166727       18.8129315863
 Br        20.0092625978        9.3443266697       20.1263225741
 Zn        18.6671221473       18.7783559242        8.0587126839
 Br        19.9775227436       20.0956929719        9.3752797058
 Zn        14.5987247713        7.9507730631       14.6705359233
 Br        13.3212903830        9.2626068566       13.3306065218
 Zn        14.5573863755       18.7782713635        3.8949555289
 Br        13.2493626413       20.1024603104        2.5837978732
 Zn         3.7261800905        8.0679929905        3.8929020894
 Br         2.3906749580        9.3673640034        2.5860392550
 Zn         3.6962838700       18.9479675678       14.7702230591
 Br         2.3890410143       20.2760296958       13.4606514079
 Zn         7.8075434033       14.8146104011       14.7971326528
 Br         9.1235683596       13.5283196163       13.4649777543
 Zn         7.8402354428        3.8687970806        3.8412651308
 Br         9.0951470821        2.5172099343        2.5093271463
 Zn        18.7184913947       14.6603154802        3.8978048948
 Br        20.0439125055       13.3610204348        2.5787849940
 Zn        18.7574948161        3.8498132584       14.6858772664
 Br        20.0858601657        2.5319028439       13.3893790261
 Zn         5.8408029460        6.0656572044       16.8240767499
 Zn        16.6033626533       16.7565100014       16.7768054263
 Zn        16.6684719495        5.8776694479        5.9044806177
 Zn         5.7933521853       16.8322133585        6.0153973707
 Zn         5.8439489330        6.0074849085        5.9414398680
 Zn        16.6174350344       16.7053948633        5.9605021376
 Zn         5.7745423495       16.8864472606       16.8520021350
 Zn        16.6620475991        5.9223527527       16.7343578962
  N         3.6526823232        6.0664720195       16.7526405051
  N        14.4828401374        5.8349111701        5.9010089952
  N        18.7854190995       16.7337349421       16.7456582911
  N         7.9844736453       16.8247808290        6.0199119731
  N        18.8525979378        5.9016070094        5.9301573373
  N         8.0244213589        6.0061768634       16.8570989426
  N         3.6132026670       16.8384088480        5.9982521031
  N        14.4155299475       16.7824575634       16.8125852684
  N        16.6911623942        3.6994414466        5.9018831050
  N        16.5777660752       14.5652118374       16.7818500013
  N        16.6280624908       18.9385186490       16.7740753124
  N        16.6420780861        8.0678636729        5.8959693391
  N         5.7925849076       19.0157962726        6.0124576254
  N         5.7831614334        8.2445127339       16.8769790169
  N         5.8530942500        3.8782697282       16.7562331141
  N         5.7657682807       14.6445993737        6.0263258120
  N         5.8223226343       16.8265871149        3.8353308915
  N         5.9209415937        6.1651705082       14.6064204478
  N        16.6341574783       16.7568437905       18.9666956962
  N        16.6701005948        5.8712091219        8.1006872114
  N         5.7774833789        6.0080268061       18.9807770901
  N         5.7839017209       16.8519901240        8.2034858766
  N        16.6813406014        5.8784601755        3.7303020052
  N        16.5728767172       16.7534174534       14.5967111776
  N         5.8174561705        3.8255455447        5.9866263421
  N         5.7394837758       14.6973201488       16.8574064211
  N        16.6177696183       18.8918622155        5.9730503133
  N        16.6295633846        8.1116397854       16.7504178300
  N         5.7770373457       19.0681154646       16.8364575236
  N         5.8276352777        8.1935197868        5.8972478570
  N        16.6753823127        3.7454042465       16.7483461758
  N        16.6384683016       14.5201297313        5.9586595321
  N         3.5909914083       16.8975647792       16.8599504262
  N        14.4348434833       16.6899489471        5.9464273342
  N        18.8056928304       16.7147839231        5.9834738437
  N         7.9631946736       16.8758434416       16.8590283682
  N        18.8440134534        5.9394154894       16.7398851505
  N         8.0313095090        5.9238610460        5.8720233938
  N         3.6604272308        6.0502604733        6.0322072828
  N        14.4740279947        5.8781800044       16.7247173402
  N        16.6589139733        5.9326761810       18.9233306901
  N        16.5978276095       16.7000700182        8.1471600244
  N        16.6368827272       16.7146310227        3.7780184246
  N        16.6893328507        5.9174725310       14.5520594003
  N         5.7702538504        5.9636532175        3.7807705052
  N         5.7670428448       16.8911840010       14.6567612207
  N         5.7793466609       16.8912284310       19.0289823554
  N         5.9512067712        6.0779759142        8.1492432898
  C        11.1663780483       15.7622371491       15.7927981667
  H        11.1471218314       14.9814223701       15.0229063547
  C        11.2467058207        4.8105279544        4.8261349381
  H        11.2387649982        4.0514609765        4.0348512034
  C         0.4130046313       15.7246084731        4.9299770512
  H         0.4356972263       14.9544809317        4.1494594252
  C         0.4504791547        4.9598936246       15.6661467940
  H         0.4676922264        4.1913953225       14.8841264603
  C        11.2477020182        6.9149047995       15.6610152061
  H        11.2498751954        7.6701426567       14.8678574984
  C        11.2203544124       17.8270168855        4.9432949415
  H        11.2288714899       18.6166398415        4.1822549344
  C         0.4288678448        7.0351226762        4.9328408530
  H         0.4254371851        7.8033589973        4.1498876517
  C         0.3598131125       17.8733637748       15.7434872754
  H         0.3515714073       18.6474061104       14.9665674849
  C        11.1993099519       15.6716150025        7.0164400300
  H        11.1911732256       14.8822172506        7.7777148835
  C        11.2498385965        4.8873864923       17.8555302168
  H        11.2512323095        4.1415301290       18.6592788015
  C         0.3763414944       15.7660942635       17.8669695653
  H         0.3852572096       14.9943208181       18.6461956080
  C         0.4424345172        4.9422636570        7.0696605145
  H         0.4450642531        4.1746742687        7.8527702392
  C        11.2684406081        6.8775797704        6.9843803801
  H        11.2785222796        7.6459199374        7.7654002872
  C        11.2127828168       17.8938987586       17.8894615909
  H        11.2324996071       18.6749918369       18.6590353962
  C         0.4051720593        7.0553807132       17.8004094061
  H         0.3874347747        7.8238675964       18.5829854436
  C         0.3665116663       17.8258859218        7.0590847688
  H         0.3446979788       18.5974969479        7.8381891154
  C        15.5154465659       11.3350687639       15.7300858548
  H        14.7282050977       11.3335236782       14.9665112415
  C        15.6052206779        0.4762631226        4.8739513953
  H        14.8320442341        0.4769603820        4.0960464948
  C         4.7306479495       11.4296677298        4.9145489958
  H         3.9638942726       11.4402715389        4.1307284326
  C         4.7671542310        0.6508927307       15.7207805894
  H         3.9987671682        0.6454514345       14.9384425206
  C        15.5710809397       11.2836959043        6.9751559646
  H        14.7907222262       11.2763516951        7.7458050763
  C        15.5962724694        0.5345065211       17.8177666302
  H        14.8236756982        0.5460379741       18.5962399207
  C         4.6946228232       11.4661247415       17.9221707976
  H         3.9290159400       11.4626338526       18.7071790424
  C         4.7476588275        0.6081782228        7.0693645324
  H         3.9803522168        0.6105869633        7.8528746154
  C         6.7792967455       11.4767622602       15.7820143721
  H         7.5556568132       11.4839315083       15.0091817207
  C         6.8354462108        0.5927451213        4.9274988829
  H         7.5995724761        0.5901229338        4.1406274607
  C        17.7020870920       11.3048377389        4.8770671731
  H        18.4832851565       11.3119493882        4.1074116151
  C        17.7004989729        0.5099754522       15.6906062302
  H        18.4710168970        0.4988116450       14.9103011593
  C         6.8193436175       11.4089797538        7.0515160027
  H         7.5963544244       11.4004411499        7.8239196463
  C         6.8571988868        0.6545451088       17.8599111574
  H         7.6227859159        0.6604360417       18.6454261611
  C        17.6648621814       11.3414870619       17.8085897205
  H        18.4530443694       11.3432962102       18.5711303762
  C        17.7114386540        0.4756691359        6.9987411205
  H        18.4825446968        0.4746063211        7.7785677210
  C        15.5125152893       15.6737872945       11.3766916186
  H        14.7315369541       14.9039049131       11.3809853910
  C        15.6240133478        4.8411575161        0.5018186182
  H        14.8538225735        4.0604391195        0.4962501539
  C         4.7461047388       15.8046677844        0.6082777602
  H         3.9661583112       15.0335968435        0.6052004571
  C         4.8899719468        5.0810954127       11.3870407305
  H         4.1139381556        4.3053493744       11.3960898481
  C         6.8503077950       15.8296805195       11.4392229397
  H         7.6304080666       15.0588107934       11.4487014742
  C         6.8148164786        4.9151810756        0.5543735586
  H         7.5883061523        4.1375162302        0.5496997377
  C        17.6950984733       15.6759804336        0.5449964732
  H        18.4675885458       14.8975272749        0.5383648277
  C        17.7316247931        4.8341406640       11.3313472232
  H        18.5005546698        4.0523632458       11.3343626896
  C        15.6359142419        6.9679907917       11.3221795734
  H        14.8677503282        7.7508648680       11.3184519572
  C        15.5889016867       17.7993797222        0.5601456716
  H        14.8172392708       18.5787449259        0.5666322413
  C         4.7009227294        7.0357740313        0.5665961499
  H         3.9271870239        7.8131985125        0.5714298801
  C         4.7259059784       17.9338636330       11.4204487099
  H         3.9479048889       18.7066417983       11.4121606431
  C         6.9998520245        7.1929086495       11.3675270389
  H         7.7734760016        7.9666266706       11.3567041435
  C         6.8741466368       17.9084259685        0.6155932987
  H         7.6542280461       18.6793633019        0.6196433042
  C        17.7221672872        6.9747090457        0.5126186125
  H        18.4900514724        7.7578508583        0.5175683985
  C        17.6421205158       17.7745391893       11.3674463760
  H        18.4235808278       18.5442249474       11.3632890140
 Xe        10.8952591566       11.0768125226       11.4061747993
