     409
 i =      56, E =    -5133.8574555800
  N         3.0507096919        5.2045118660       16.0127202722
  C         1.7345225447        5.4776106539       16.2854334915
  N        13.8639731101        5.2048602962        5.2048605853
  C        12.5488985001        5.4773735441        5.4773717803
  N        19.7289489976       17.5718038704       16.0127494754
  C        21.0458695382       17.2988811004       16.2850140385
  N         8.9119000304       17.5714041788        5.2049033130
  C        10.2269989946       17.2986993834        5.4773290203
  N        19.7291380292        5.2044389617        6.7634051149
  C        21.0459611641        5.4771711739        6.4910164564
  N         8.9118907041        5.2049087289       17.5713965094
  C        10.2270076964        5.4773257430       17.2986993386
  N         3.0507489211       17.5717450207        6.7632281569
  C         1.7345162975       17.2985595311        6.4906172643
  N        13.8642194853       17.5713255435       17.5713228481
  C        12.5490218035       17.2987494783       17.2987484349
  N        16.0127445849        3.0507204865        5.2045083608
  C        16.2854562748        1.7345085494        5.4775776167
  N        16.0127178535       13.8638683362       16.0126837356
  C        16.2854551686       12.5489433041       16.2853960167
  N        16.0127677423       19.7289514195       17.5718067536
  C        16.2850274060       21.0458660739       17.2988950310
  N        16.0127043456        8.9121831300        6.7634086294
  C        16.2854166803       10.2270900838        6.4906640995
  N         6.7633620092       19.7291441901        5.2043879631
  C         6.4909306896       21.0459468955        5.4770966732
  N         6.7633502009        8.9121828675       16.0126583457
  C         6.4905771084       10.2270777938       16.2853243442
  N         6.7632299150        3.0507543276       17.5717614606
  C         6.4905831768        1.7345233301       17.2985689132
  N         6.7633725810       13.8637042937        6.7633712821
  C         6.4906558537       12.5488874623        6.4906910622
  N         5.2044978097       16.0127258242        3.0507094674
  C         5.4775729646       16.2854503960        1.7345152040
  N         5.2048502449        5.2048656754       13.8639623920
  C         5.4773519983        5.4773965746       12.5489205150
  N        17.5718127887       16.0127617763       19.7289485242
  C        17.2988875852       16.2850361203       21.0458415227
  N        17.5714408881        5.2049634005        8.9118957915
  C        17.2987864105        5.4774033848       10.2270012728
  N         5.2043869767        6.7633595043       19.7291368710
  C         5.4770832893        6.4909415481       21.0459658084
  N         5.2049213833       17.5713916565        8.9119030893
  C         5.4773179805       17.2986983131       10.2269746645
  N        17.5717622452        6.7632292465        3.0507644092
  C        17.2985853042        6.4905920434        1.7345303545
  N        17.5713349647       17.5713095218       13.8642130017
  C        17.2987794677       17.2987272819       12.5490209848
  N         5.2044628971        3.0506417757        6.7633177369
  C         5.4774845895        1.7344607876        6.4905553710
  N         5.2049197656       13.8640933662       17.5713872661
  C         5.4773148784       12.5489680365       17.2986967061
  N        17.5718399385       19.7290164376        6.7632776054
  C        17.2989838813       21.0459006887        6.4909745584
  N        17.5713485813        8.9117688863       17.5713113536
  C        17.2987828389       10.2269486033       17.2987216009
  N         5.2044200399       19.7290683609       16.0126824051
  C         5.4771704290       21.0459096239       16.2850658205
  N         5.2048444266        8.9120309594        5.2048633086
  C         5.4773483017       10.2270274051        5.4773988509
  N        17.5717356160        3.0508326130       16.0128067735
  C        17.2984892940        1.7345776600       16.2854161430
  N        17.5714209835       13.8640903952        5.2049519494
  C        17.2987709474       12.5489605533        5.4773930720
  N         3.0508265474       16.0128140483       17.5717248504
  C         1.7345702239       16.2854078227       17.2984771553
  N        13.8638043681       16.0126623906        6.7633494097
  C        12.5488999413       16.2853324864        6.4905900242
  N        19.7290660384       16.0126572944        5.2044379237
  C        21.0459036233       16.2850428488        5.4772126203
  N         8.9121105721       16.0126880296       16.0126839618
  C        10.2270396813       16.2854208672       16.2854177263
  N        19.7290233277        6.7632902076       17.5718134351
  C        21.0459087592        6.4910095245       17.2989545265
  N         8.9122598924        6.7634060671        6.7634034333
  C        10.2271127393        6.4906742674        6.4906751312
  N         3.0506346371        6.7633344333        5.2045009044
  C         1.7344644268        6.4906161252        5.4775561936
  N        13.8638038191        6.7633522176       16.0126593184
  C        12.5489001207        6.4905864762       16.2853323939
  N        16.0126864577        5.2044188701       19.7290610575
  C        16.2850717591        5.4771736702       21.0459227623
  N        16.0127137911       16.0126677903        8.9121084400
  C        16.2854603099       16.2853923647       10.2270333672
  N        16.0128228656       17.5717233920        3.0508313528
  C        16.2854128656       17.2984973964        1.7345523600
  N        16.0126969382        6.7633825612       13.8637921695
  C        16.2854056423        6.4906487665       12.5488919043
  N         6.7633085877        5.2044740004        3.0506329506
  C         6.4905430210        5.4774980057        1.7344893646
  N         6.7633360398       16.0126849183       13.8637844131
  C         6.4905805082       16.2853314175       12.5489332159
  N         6.7632824952       17.5718429985       19.7290256592
  C         6.4909674146       17.2989728122       21.0459027951
  N         6.7633781012        6.7633920627        8.9122656317
  C         6.4906519875        6.4906979608       10.2271040725
  N        19.7290247185       17.5718132740        6.7632889210
  C        21.0459141761       17.2989558889        6.4910095206
  N         8.9117656484       17.5713405440       17.5713365295
  C        10.2269554038       17.2987521322       17.2987478965
  N         3.0506347577        5.2044981891        6.7633370190
  C         1.7344649231        5.4775576711        6.4906153027
  N        13.8640932508        5.2049213813       17.5713837489
  C        12.5489703012        5.4773268003       17.2986986203
  N         3.0508266945       17.5717266615       16.0128120417
  C         1.7345624035       17.2984811849       16.2854049683
  N        13.8640959323       17.5713835225        5.2049225162
  C        12.5489714771       17.2986977134        5.4773299575
  N        19.7290646586        5.2044373165       16.0126562216
  C        21.0459033518        5.4772120387       16.2850421926
  N         8.9120230080        5.2048416524        5.2048399895
  C        10.2270714306        5.4773722993        5.4773701815
  N         6.7632829438       19.7290261393       17.5718409692
  C         6.4909679153       21.0458992186       17.2989709623
  N         6.7633759530        8.9122689131        6.7633872150
  C         6.4906539029       10.2270918442        6.4906949124
  N         6.7633086635        3.0506328331        5.2044727063
  C         6.4905446472        1.7344831836        5.4774992969
  N         6.7633400115       13.8637932013       16.0126753940
  C         6.4905795255       12.5489102285       16.2853271343
  N        16.0128199922        3.0508308853       17.5717241945
  C        16.2854127851        1.7345577881       17.2984952517
  N        16.0127004731       13.8637912895        6.7633808024
  C        16.2854020768       12.5488877459        6.4906512871
  N        16.0126901933       19.7290589287        5.2044211470
  C        16.2850707217       21.0459223476        5.4771744973
  N        16.0127094274        8.9121084602       16.0126622290
  C        16.2854607586       10.2270392091       16.2853931568
  N        17.5718400666        6.7632773063       19.7290184409
  C        17.2989816797        6.4909757481       21.0458988662
  N        17.5713468230       17.5713094144        8.9117667231
  C        17.2987823636       17.2987230152       10.2269473885
  N         5.2044655040        6.7633156585        3.0506416424
  C         5.4774846857        6.4905575570        1.7344663298
  N         5.2049285447       17.5713834719       13.8640831705
  C         5.4773201483       17.2987000255       12.5489894381
  N        17.5717364373       16.0128074529        3.0508332123
  C        17.2984885514       16.2854182923        1.7345792840
  N        17.5714201191        5.2049518781       13.8640870502
  C        17.2987707680        5.4773886126       12.5489625018
  N         5.2044188759       16.0126848725       19.7290683763
  C         5.4771722791       16.2850668828       21.0459095537
  N         5.2048382873        5.2048608278        8.9120251235
  C         5.4773464294        5.4773999476       10.2270410922
  N        17.5718101389       19.7289501868       16.0127617543
  C        17.2988904228       21.0458432474       16.2850350798
  N        17.5714431803        8.9118943019        5.2049609522
  C        17.2987859129       10.2269998207        5.4774065507
  N         5.2044979731        3.0507147612       16.0127295683
  C         5.4775704904        1.7345076521       16.2854492688
  N         5.2048613306       13.8639530140        5.2048672596
  C         5.4773553937       12.5489428015        5.4773940209
  N        17.5717647927        3.0507655490        6.7632317276
  C        17.2985843633        1.7345253097        6.4905936497
  N        17.5713357598       13.8642142609       17.5713080103
  C        17.2987786462       12.5490196186       17.2987259660
  N         5.2043846682       19.7291409110        6.7633655153
  C         5.4770841230       21.0459604012        6.4909389075
  N         5.2049052826        8.9118896541       17.5713957994
  C         5.4773117676       10.2270112088       17.2986941018
  N        19.7291377822        6.7634029460        5.2044420542
  C        21.0459617386        6.4910160127        5.4771689019
  N         8.9121867297        6.7633586811       16.0126536861
  C        10.2270669580        6.4905882051       16.2853316159
  N         3.0507522187        6.7632254788       17.5717381099
  C         1.7345147020        6.4906200534       17.2985584069
  N        13.8637380164        6.7633942418        6.7633932820
  C        12.5488575753        6.4906748882        6.4906762146
  N         3.0507060749       16.0127201346        5.2045072782
  C         1.7345337038       16.2854356351        5.4776121754
  N        13.8638785015       16.0126929013       16.0126912691
  C        12.5489254450       16.2854243657       16.2854205240
  N        19.7289490908       16.0127502711       17.5718026688
  C        21.0458632178       16.2850175686       17.2988774703
  N         8.9121927812       16.0126508247        6.7633635347
  C        10.2270682440       16.2853310722        6.4905922136
  N         6.7632375637       17.5717656864        3.0507467009
  C         6.4905834586       17.2985686885        1.7345282132
  N         6.7633691401        6.7633782063       13.8637135001
  C         6.4906545082        6.4906937739       12.5488697942
  N         6.7633562564        5.2043915332       19.7291377772
  C         6.4909277124        5.4770938215       21.0459541763
  N         6.7633472985       16.0126737569        8.9121954512
  C         6.4905806140       16.2853300733       10.2270412972
  N        16.0127661101       17.5718090862       19.7289501420
  C        16.2850284176       17.2988985732       21.0458732575
  N        16.0127052170        6.7634079252        8.9121843568
  C        16.2854204889        6.4906619117       10.2270827285
  N        16.0127452042        5.2045082146        3.0507197098
  C        16.2854565869        5.4775772206        1.7345117671
  N        16.0127179086       16.0126861412       13.8638677042
  C        16.2854541988       16.2853964145       12.5489440634
 Zn        14.6885498983       14.6885148249       14.6885144165
 Br        13.3692833796       13.3692353729       13.3692344374
 Zn        14.6898139209        3.8817549718        3.8817560662
 Br        13.3700513175        2.5617342121        2.5617347002
 Zn         3.8817402641       14.6897929260        3.8817657092
 Br         2.5617162720       13.3700297500        2.5617632212
 Zn         3.8817402568        3.8817668349       14.6897943935
 Br         2.5617146808        2.5617635023       13.3700300957
 Zn         8.0874441534        8.0874682349       14.6884462478
 Br         9.4067202321        9.4067404231       13.3692042857
 Zn         8.0857146295       18.8950834521        3.8820451526
 Br         9.4059509128       20.2142561053        2.5616752829
 Zn        18.8951048572        8.0857389935        3.8820930668
 Br        20.2142772650        9.4059701010        2.5617269683
 Zn        18.8947327060       18.8947156205       14.6906422066
 Br        20.2142888489       20.2142706410       13.3699693635
 Zn         8.0874470658       14.6884444789        8.0874677168
 Br         9.4067212058       13.3692051831        9.4067401887
 Zn         8.0857128744        3.8820459884       18.8950825784
 Br         9.4059493785        2.5616748974       20.2142562639
 Zn        18.8947325831       14.6906421388       18.8947149644
 Br        20.2142891898       13.3699696357       20.2142700271
 Zn        18.8951044343        3.8820924769        8.0857397119
 Br        20.2142765547        2.5617265898        9.4059712812
 Zn        14.6885187333        8.0874892458        8.0874883227
 Br        13.3692659577        9.4067551206        9.4067551408
 Zn        14.6906535522       18.8947254073       18.8947258032
 Br        13.3699803025       20.2142829016       20.2142818129
 Zn         3.8820371051        8.0857194335       18.8950716432
 Br         2.5616672336        9.4059556979       20.2142418644
 Zn         3.8820362029       18.8950725880        8.0857186892
 Br         2.5616684996       20.2142415468        9.4059550804
 Zn        14.6885302366       14.6884669124        8.0874385859
 Br        13.3692731275       13.3692103401        9.4067307624
 Zn        14.6902349732        3.8820745709       18.8950528837
 Br        13.3700133599        2.5616902183       20.2142403659
 Zn         3.8820668243       14.6902272601       18.8950478750
 Br         2.5616820031       13.3700071598       20.2142316244
 Zn         3.8817042159        3.8817493257        8.0861543185
 Br         2.5616971916        2.5617585114        9.4059318797
 Zn         8.0874774041        8.0875079316        8.0875090435
 Br         9.4067370585        9.4067619124        9.4067616439
 Zn         8.0852964467       18.8947556840       18.8947551935
 Br         9.4059839786       20.2142994681       20.2142982124
 Zn        18.8947616567        8.0853023359       18.8947375981
 Br        20.2143029058        9.4059912612       20.2142789635
 Zn        18.8947627860       18.8947371614        8.0853009374
 Br        20.2143041453       20.2142788893        9.4059905677
 Zn        14.6885283769        8.0874403289       14.6884670478
 Br        13.3692718127        9.4067315624       13.3692095084
 Zn        14.6902377613       18.8950521752        3.8820743782
 Br        13.3700153206       20.2142399651        2.5616897562
 Zn         3.8817040687        8.0861531091        3.8817504006
 Br         2.5616980017        9.4059309863        2.5617589991
 Zn         3.8820662266       18.8950485634       14.6902278098
 Br         2.5616827400       20.2142317959       13.3700057643
 Zn         8.0874145841       14.6884854225       14.6884879342
 Br         9.4067035995       13.3692269880       13.3692259550
 Zn         8.0861379257        3.8817240680        3.8817250749
 Br         9.4059144408        2.5617187681        2.5617192060
 Zn        18.8950676181       14.6902067184        3.8820995553
 Br        20.2142606101       13.3699880623        2.5617269247
 Zn        18.8950666790        3.8820997105       14.6902077734
 Br        20.2142587355        2.5617272517       13.3699890043
 Zn         5.9848708979        5.9848985576       16.7918469764
 Zn        16.7918472761       16.7918338082       16.7918362663
 Zn        16.7918791816        5.9849125727        5.9849141861
 Zn         5.9848659967       16.7918402846        5.9848989937
 Zn         5.9848529369        5.9848964872        5.9849017703
 Zn        16.7918606554       16.7918307500        5.9849030125
 Zn         5.9848806066       16.7918398855       16.7918456467
 Zn        16.7918577143        5.9849065659       16.7918336256
  N         3.7971160279        5.9837620098       16.7923612858
  N        14.6101199532        5.9841539171        5.9841583193
  N        18.9823722338       16.7924510059       16.7924523541
  N         8.1658112466       16.7920418934        5.9842263203
  N        18.9825455005        5.9838478787        5.9838459400
  N         8.1658124447        5.9842305411       16.7920520567
  N         3.7971145223       16.7923519764        5.9837630009
  N        14.6102911260       16.7919829265       16.7919892878
  N        16.7923819671        3.7971290037        5.9837483965
  N        16.7919919070       14.6102813879       16.7919771327
  N        16.7924669996       18.9823812436       16.7924571552
  N        16.7920961999        8.1658103391        5.9842450957
  N         5.9837985505       18.9825432647        5.9838087964
  N         5.9841823310        8.1658202145       16.7920157031
  N         5.9837231236        3.7971336675       16.7923702596
  N         5.9840839905       14.6100782487        5.9842022766
  N         5.9837196383       16.7923654169        3.7971326712
  N         5.9841010288        5.9841919167       14.6100950546
  N        16.7924673353       16.7924547133       18.9823787400
  N        16.7920955790        5.9842444941        8.1658137850
  N         5.9838012609        5.9838107861       18.9825445457
  N         5.9841624353       16.7919938692        8.1658446246
  N        16.7923844993        5.9837473273        3.7971274794
  N        16.7919944236       16.7919740666       14.6102808784
  N         5.9838069852        3.7970454095        5.9838210745
  N         5.9841823113       14.6101853668       16.7920187617
  N        16.7923878669       18.9824620909        5.9837347892
  N        16.7920011812        8.1657235796       16.7919738775
  N         5.9837148448       18.9824606554       16.7923789634
  N         5.9840830534        8.1659288505        5.9842123161
  N        16.7924598219        3.7972161501       16.7924499970
  N        16.7920768136       14.6101962501        5.9842292413
  N         3.7972061054       16.7924396979       16.7924434087
  N        14.6101998839       16.7920469662        5.9842199602
  N        18.9824615768       16.7923625995        5.9837490154
  N         8.1657178653       16.7919725092       16.7919850546
  N        18.9824616135        5.9837494441       16.7923658901
  N         8.1658946693        5.9841532538        5.9841632845
  N         3.7970322925        5.9838499901        5.9838486495
  N        14.6101991223        5.9842247622       16.7920530495
  N        16.7923870243        5.9837386127       18.9824621791
  N        16.7920035137       16.7919685344        8.1657265258
  N        16.7924612573       16.7924468993        3.7972158141
  N        16.7920766180        5.9842307656       14.6101966589
  N         5.9838049542        5.9838187969        3.7970430235
  N         5.9841713142       16.7920049424       14.6101734102
  N         5.9837168493       16.7923762173       18.9824600943
  N         5.9840902595        5.9842026622        8.1659222046
  C        11.3879905715       15.7393870735       15.7393831069
  H        11.3879798251       14.9661331611       14.9661319833
  C        11.3879919907        4.9313203869        4.9313198353
  H        11.3879807912        4.1581009226        4.1581017344
  C         0.5713393932       15.7404214944        4.9327643175
  H         0.5757615820       14.9670915804        4.1594046534
  C         0.5713413401        4.9327686862       15.7404234881
  H         0.5757600066        4.1594039839       14.9670910428
  C        11.3879906933        7.0366280801       15.7392389013
  H        11.3879801936        7.8098607676       14.9660358778
  C        11.3879904482       17.8447194583        4.9312775241
  H        11.3879801022       18.6179150716        4.1580710703
  C         0.5713414677        7.0355929618        4.9326995395
  H         0.5757602897        7.8089187012        4.1593192994
  C         0.5713418148       17.8432535337       15.7404364935
  H         0.5757616671       18.6166315160       14.9670652166
  C        11.3879916223       15.7392432774        7.0366282103
  H        11.3879808844       14.9660354331        7.8098618499
  C        11.3879865164        4.9312777832       17.8447142021
  H        11.3879793819        4.1580694955       18.6179161051
  C         0.5713409414       15.7404327011       17.8432575346
  H         0.5757615928       14.9670683852       18.6166285074
  C         0.5713411956        4.9326970871        7.0355944805
  H         0.5757604028        4.1593193172        7.8089182024
  C        11.3879916369        7.0367664907        7.0367641384
  H        11.3879802942        7.8099602584        7.8099601470
  C        11.3879854828       17.8447441634       17.8447392225
  H        11.3879784311       18.6179557279       18.6179536625
  C         0.5713417671        7.0355619453       17.8433586627
  H         0.5757598986        7.8089300118       18.6167221003
  C         0.5713420092       17.8433581341        7.0355589836
  H         0.5757617246       18.6167232049        7.8089299237
  C        15.7394064408       11.3879807899       15.7393401177
  H        14.9661538850       11.3879782727       14.9661188844
  C        15.7404777068        0.5713465198        4.9327582990
  H        14.9671072428        0.5757633926        4.1593850584
  C         4.9312706859       11.3879845990        4.9313038255
  H         4.1580928993       11.3879779904        4.1581209129
  C         4.9327523355        0.5713505360       15.7404652891
  H         4.1593807466        0.5757621209       14.9671006756
  C        15.7393208021       11.3879815754        7.0366924307
  H        14.9660668996       11.3879766478        7.8098931547
  C        15.7404544240        0.5713502615       17.8432584475
  H        14.9670723901        0.5757637741       18.6166348834
  C         4.9312722056       11.3879833156       17.8447141982
  H         4.1580608087       11.3879800471       18.6179157176
  C         4.9326322551        0.5713469986        7.0355241052
  H         4.1592861902        0.5757616809        7.8088897556
  C         7.0366190420       11.3879811145       15.7392419969
  H         7.8098557461       11.3879803162       14.9660316424
  C         7.0355276780        0.5713446183        4.9326277135
  H         7.8088822231        0.5757625652        4.1592936965
  C        17.8447938968       11.3879869981        4.9313433405
  H        18.6179520564       11.3879769792        4.1580968293
  C        17.8432780026        0.5713502725       15.7404330923
  H        18.6166302845        0.5757622912       14.9670753396
  C         7.0367581830       11.3879831035        7.0367776181
  H         7.8099487807       11.3879782905        7.8099633242
  C         7.0355461613        0.5713482008       17.8433883540
  H         7.8089138978        0.5757626136       18.6167268132
  C        17.8447696074       11.3879854068       17.8447185183
  H        18.6179647653       11.3879785523       18.6179462946
  C        17.8433930931        0.5713461690        7.0355487583
  H        18.6167309436        0.5757610692        7.8089193031
  C        15.7394046765       15.7393409004       11.3879820799
  H        14.9661542596       14.9661203026       11.3879781574
  C        15.7404762983        4.9327566495        0.5713456506
  H        14.9671077755        4.1593849081        0.5757638889
  C         4.9327500966       15.7404635348        0.5713472606
  H         4.1593827578       14.9671019000        0.5757619443
  C         4.9312729053        4.9313135805       11.3879900070
  H         4.1580890955        4.1581190529       11.3879777691
  C         7.0366399958       15.7392343661       11.3879863482
  H         7.8098518428       14.9660391034       11.3879796716
  C         7.0355278991        4.9326272279        0.5713406180
  H         7.8088810847        4.1592936268        0.5757629308
  C        17.8432815958       15.7404323426        0.5713483564
  H        18.6166308172       14.9670763112        0.5757609085
  C        17.8447916912        4.9313447456       11.3879875053
  H        18.6179520014        4.1580954683       11.3879775891
  C        15.7393139350        7.0366974402       11.3879835124
  H        14.9660691598        7.8098906080       11.3879771455
  C        15.7404596608       17.8432546548        0.5713490220
  H        14.9670713019       18.6166373166        0.5757640711
  C         4.9326318454        7.0355222324        0.5713450208
  H         4.1592853268        7.8088902343        0.5757632862
  C         4.9312661672       17.8447327205       11.3879890843
  H         4.1580678368       18.6179120653       11.3879783162
  C         7.0367479578        7.0367744018       11.3879860211
  H         7.8099506961        7.8099663201       11.3879785937
  C         7.0355470284       17.8433885119        0.5713452679
  H         7.8089153956       18.6167266029        0.5757626085
  C        17.8433949453        7.0355494399        0.5713454980
  H        18.6167303580        7.8089177370        0.5757614306
  C        17.8447700492       17.8447202187       11.3879848303
  H        18.6179649800       18.6179459124       11.3879778678
 Xe        -0.0013861527       10.8061027765       10.8061027657
