     409
 i =      56, E =    -5133.8841108058
  N         2.9812900548        5.2272027250       16.0545936189
  C         1.6617119636        5.4919605601       16.3170940704
  N        13.7509127035        5.2008835945        5.2008842612
  C        12.4354968788        5.4774561484        5.4774572852
  N        19.6985437252       17.5718850585       16.0154624546
  C        21.0163916231       17.3158816925       16.2999937309
  N         8.8392974247       17.6146775075        5.2316700188
  C        10.1569643189       17.3320134514        5.4913291343
  N        19.6170562694        5.1930266945        6.7480593931
  C        20.9343281509        5.4792859285        6.4947854697
  N         8.8392955348        5.2316746594       17.6146812692
  C        10.1569646703        5.4913322224       17.3320139409
  N         2.9678326625       17.6034934262        6.7896714599
  C         1.6520596807       17.3297678853        6.5105638625
  N        13.8445810726       17.5771400316       17.5771316311
  C        12.5248877264       17.3127206167       17.3127128244
  N        15.9008090717        3.0349292560        5.1911509652
  C        16.1776157198        1.7176972042        5.4592012611
  N        15.9804550547       13.8619684104       16.0111853784
  C        16.2453723712       12.5435314711       16.2810638851
  N        15.9957618935       19.7209330466       17.5671753607
  C        16.2557622530       21.0388297265       17.2912695954
  N        15.9218602461        8.9050590346        6.7489997605
  C        16.1981143393       10.2215977227        6.4791795968
  N         6.6741345770       19.7708267925        5.2466304545
  C         6.3922958524       21.0865320740        5.5145801852
  N         6.6886785401        8.9382555253       16.0444415439
  C         6.4270586757       10.2574589398       16.3159297992
  N         6.6888056091        3.0840799709       17.6246870847
  C         6.4298886490        1.7646863078       17.3514539816
  N         6.6896199522       13.8961676997        6.7744718686
  C         6.4147745534       12.5792972817        6.5039188021
  N         5.1367158180       16.0650063325        3.0755843149
  C         5.4156894912       16.3342409829        1.7594526595
  N         5.1255945893        5.2275918091       13.9024235653
  C         5.3916467678        5.4957890343       12.5837364513
  N        17.5447201200       16.0057465953       19.7248776343
  C        17.2681825402       16.2725924906       21.0422608695
  N        17.4722850401        5.1884623220        8.8984757148
  C        17.2111665371        5.4610384583       10.2172681792
  N         5.1178759616        6.8017985795       19.7601171830
  C         5.3766628933        6.5303285391       21.0800702299
  N         5.1321360009       17.5990209186        8.9459469160
  C         5.4113661004       17.3316523109       10.2623386875
  N        17.4600717158        6.7440816789        3.0400401757
  C        17.1947188337        6.4735835650        1.7219415863
  N        17.5400064768       17.5637004019       13.8560233412
  C        17.2626640570       17.2952475473       12.5392995448
  N         5.0785795652        3.0794924587        6.7946461276
  C         5.3567051639        1.7623214486        6.5269908260
  N         5.1648242288       13.9017137318       17.6074365257
  C         5.4272462286       12.5832058918       17.3355942559
  N        17.4892340898       19.7257740405        6.7411930196
  C        17.2099442980       21.0415071685        6.4720366386
  N        17.5043669732        8.8996523601       17.5734656202
  C        17.2452193896       10.2183095868       17.2992161353
  N         5.1745190231       19.7602062256       16.0552624833
  C         5.4352725479       21.0784634461       16.3296740423
  N         5.0934534225        8.9462293755        5.2356402268
  C         5.3785267960       10.2626354336        5.4973420000
  N        17.5155302697        3.0431044330       15.9989989884
  C        17.2527310062        1.7239243100       16.2693687020
  N        17.5089822918       13.8555166379        5.1999326264
  C        17.2291008195       12.5387060852        5.4659904425
  N         3.0158343897       16.0593155460       17.6146900103
  C         1.6980957384       16.3217701907       17.3373759160
  N        13.7942946289       16.0125034168        6.7541611669
  C        12.4769915256       16.2930024980        6.4915218561
  N        19.6659335261       16.0208630443        5.2021617281
  C        20.9808734234       16.3001019891        5.4781648372
  N         8.8760177108       16.0440781899       16.0440793434
  C        10.1955229787       16.3087947631       16.3087838986
  N        19.6497157389        6.7537720519       17.5809505441
  C        20.9702335479        6.4925070599       17.3171000011
  N         8.8078729041        6.7813349584        6.7813359846
  C        10.1232233203        6.5054856062        6.5054870149
  N         2.9321064158        6.7998773854        5.2439501498
  C         1.6146434941        6.5205918311        5.5048643542
  N        13.7942948658        6.7541583566       16.0125054799
  C        12.4769921273        6.4915221047       16.2930037292
  N        15.9378980560        5.1821522052       19.7161828721
  C        16.1957393157        5.4550846904       21.0358068369
  N        15.9526364766       16.0147295267        8.9062134877
  C        16.2308240097       16.2824913057       10.2227054904
  N        15.9574221822       17.5526699010        3.0352136856
  C        16.2368366033       17.2849332902        1.7191466033
  N        15.9506152619        6.7542060897       13.8610746726
  C        16.2131186524        6.4815421992       12.5426628499
  N         6.6324903867        5.2370850112        3.0851741490
  C         6.3713939252        5.5103492256        1.7670254019
  N         6.7180245841       16.0497963103       13.8955514129
  C         6.4416109846       16.3186942581       12.5788641406
  N         6.7318636743       17.6091752074       19.7648896448
  C         6.4516203614       17.3447686477       21.0823932370
  N         6.6670221556        6.7732029745        8.9389908140
  C         6.4063787928        6.5000988607       10.2578261873
  N        19.6497167895       17.5809518054        6.7537723777
  C        20.9702340221       17.3171000706        6.4925069622
  N         8.8871472782       17.5996806696       17.5996815172
  C        10.2033389798       17.3245184388       17.3245076351
  N         2.9321060138        5.2439489865        6.7998747096
  C         1.6146432755        5.5048637400        6.5205898999
  N        13.7964651526        5.1924235556       17.5625167820
  C        12.4784718982        5.4734853727       17.3063966261
  N         3.0158330615       17.6146911619       16.0593151331
  C         1.6980969093       17.3373779669       16.3217689722
  N        13.7964668763       17.5625132590        5.1924241106
  C        12.4784748403       17.3063939635        5.4734841528
  N        19.6659336988        5.2021612727       16.0208622029
  C        20.9808748413        5.4781638995       16.3001014196
  N         8.7941565853        5.2264813550        5.2264816596
  C        10.1141654987        5.4899524214        5.4899533357
  N         6.7318573377       19.7648908052       17.6091742175
  C         6.4516197332       21.0824008224       17.3447643724
  N         6.6670237757        8.9389925182        6.7732012889
  C         6.4063776852       10.2578285619        6.5000980474
  N         6.6324901338        3.0851766917        5.2370846639
  C         6.3713930630        1.7670280700        5.5103472409
  N         6.7180349546       13.8955501170       16.0497905972
  C         6.4416174531       12.5788731802       16.3186946127
  N        15.9574185730        3.0352138845       17.5526688564
  C        16.2368322693        1.7191459946       17.2849294280
  N        15.9506144429       13.8610748750        6.7542066655
  C        16.2131164038       12.5426632410        6.4815416027
  N        15.9378963122       19.7161825389        5.1821525484
  C        16.1957379699       21.0358053007        5.4550849122
  N        15.9526387028        8.9062134184       16.0147281183
  C        16.2308271598       10.2227060932       16.2824866621
  N        17.4892332904        6.7411945806       19.7257739309
  C        17.2099442081        6.4720376758       21.0415085353
  N        17.5043637311       17.5734702338        8.8996520877
  C        17.2452147526       17.2992223837       10.2183081717
  N         5.0785792881        6.7946437251        3.0794918512
  C         5.3567049032        6.5269918904        1.7623216083
  N         5.1648255632       17.6074297551       13.9017137214
  C         5.4272406491       17.3355927624       12.5831983485
  N        17.5155316942       15.9989996026        3.0431038604
  C        17.2527341886       16.2693717777        1.7239241995
  N        17.5089838130        5.1999321875       13.8555158855
  C        17.2291033680        5.4659911757       12.5387052685
  N         5.1745203984       16.0552578567       19.7602040638
  C         5.4352722052       16.3296770412       21.0784570817
  N         5.0934499126        5.2356420920        8.9462289774
  C         5.3785262125        5.4973426258       10.2626356412
  N        17.5447209167       19.7248799605       16.0057450413
  C        17.2681803506       21.0422609267       16.2725883488
  N        17.4722821915        8.8984757573        5.1884613768
  C        17.2111633641       10.2172684597        5.4610368542
  N         5.1367152965        3.0755850358       16.0650005878
  C         5.4156904492        1.7594541202       16.3342402839
  N         5.1255951719       13.9024277309        5.2275950130
  C         5.3916469267       12.5837390738        5.4957885043
  N        17.4600717215        3.0400391734        6.7440816845
  C        17.1947187878        1.7219401610        6.4735836223
  N        17.5400074580       13.8560253749       17.5636973288
  C        17.2626675948       12.5393002242       17.2952411379
  N         5.1178742736       19.7601204324        6.8017946853
  C         5.3766635772       21.0800723798        6.5303262504
  N         5.1321369462        8.9459514435       17.5990206355
  C         5.4113679031       10.2623425650       17.3316561786
  N        19.6170558346        6.7480618297        5.1930281017
  C        20.9343276915        6.4947873522        5.4792865729
  N         8.8378621556        6.7821440213       16.0536826925
  C        10.1557079607        6.5050262110       16.3143168206
  N         2.9678322616        6.7896705379       17.6034939664
  C         1.6520610882        6.5105647120       17.3297657001
  N        13.7645908342        6.7575568380        6.7575586421
  C        12.4446465848        6.4933225576        6.4933243436
  N         2.9812926829       16.0545942065        5.2272060727
  C         1.6617126313       16.3170959951        5.4919603401
  N        13.8319158015       16.0212619603       16.0212524815
  C        12.5165231470       16.2970987518       16.2970904991
  N        19.6985432034       16.0154628749       17.5718838941
  C        21.0163908795       16.2999931693       17.3158814329
  N         8.8378636199       16.0536793415        6.7821400372
  C        10.1557101676       16.3143164198        6.5050243589
  N         6.6888035833       17.6246908979        3.0840783150
  C         6.4298903268       17.3514576834        1.7646831708
  N         6.6896236224        6.7744694509       13.8961651575
  C         6.4147759818        6.5039189649       12.5792977985
  N         6.6741349009        5.2466341554       19.7708241000
  C         6.3922947546        5.5145830020       21.0865317940
  N         6.6886775440       16.0444427315        8.9382511274
  C         6.4270532817       16.3159298778       10.2574548952
  N        15.9957625537       17.5671768918       19.7209318949
  C        16.2557650989       17.2912745636       21.0388294513
  N        15.9218628470        6.7490010778        8.9050590476
  C        16.1981176907        6.4791809792       10.2215971500
  N        15.9008105385        5.1911500944        3.0349297679
  C        16.1776171744        5.4592007082        1.7176983204
  N        15.9804558648       16.0111847082       13.8619668239
  C        16.2453701323       16.2810680371       12.5435298075
 Zn        14.6820937406       14.7239043360       14.7239020186
 Br        13.3586711250       13.4144658683       13.4144654995
 Zn        14.6053273393        3.9019760012        3.9019762891
 Br        13.2807507326        2.5927029170        2.5927036850
 Zn         3.8430858378       14.7691057364        3.9325485517
 Br         2.5293894275       13.4592630568        2.6120673082
 Zn         3.8430840109        3.9325533103       14.7691023455
 Br         2.5293891857        2.6120702227       13.4592625362
 Zn         7.9793880669        8.0681913734       14.7574926438
 Br         9.2872454068        9.3810945935       13.4333564896
 Zn         7.9717160126       18.9217755745        3.9529281132
 Br         9.2891437484       20.2354941732        2.6405872356
 Zn        18.7605820705        8.0334324201        3.8952002355
 Br        20.0747833107        9.3448595903        2.5774831427
 Zn        18.8336866892       18.8585470207       14.7150518916
 Br        20.1498292676       20.1680351400       13.3966116041
 Zn         7.9793962405       14.7574939534        8.0681905326
 Br         9.2872440510       13.4333539970        9.3810954559
 Zn         7.9717141488        3.9529277946       18.9217742065
 Br         9.2891404714        2.6405899378       20.2354944691
 Zn        18.8336876213       14.7150531809       18.8585457147
 Br        20.1498303637       13.3966128275       20.1680352146
 Zn        18.7605829037        3.8951994367        8.0334308872
 Br        20.0747831658        2.5774837318        9.3448589194
 Zn        14.6341982451        8.0500436217        8.0500444828
 Br        13.3252520828        9.3671714167        9.3671728426
 Zn        14.7114663649       18.8686936281       18.8686910086
 Br        13.4015193572       20.1851913690       20.1851907277
 Zn         3.8316883884        8.0931742631       18.8863141679
 Br         2.5169150124        9.4110413714       20.1980109522
 Zn         3.8316881584       18.8863224027        8.0931705931
 Br         2.5169134861       20.1980125652        9.4110390029
 Zn        14.6591579604       14.7213053641        8.0499058205
 Br        13.3420408645       13.4119540345        9.3664907822
 Zn        14.6576177804        3.8892759822       18.8411789042
 Br        13.3434949122        2.5717740261       20.1545824833
 Zn         3.8807459271       14.7662816895       18.9013467272
 Br         2.5641077921       13.4553514369       20.2186765524
 Zn         3.7912237466        3.9482358095        8.0911041918
 Br         2.4787442795        2.6349782480        9.4086149797
 Zn         7.9476657019        8.0729675100        8.0729674617
 Br         9.2543797152        9.3921067619        9.3921061449
 Zn         8.0273093015       18.8929883393       18.8929831449
 Br         9.3496997338       20.2044686250       20.2044707535
 Zn        18.7808113810        8.0384252875       18.8770983576
 Br        20.0981230136        9.3487851784       20.1934704854
 Zn        18.7808106012       18.8770993745        8.0384242189
 Br        20.0981222577       20.1934708729        9.3487838593
 Zn        14.6591575456        8.0499037468       14.7213056855
 Br        13.3420401016        9.3664887647       13.4119546470
 Zn        14.6576183261       18.8411762305        3.8892772681
 Br        13.3434945841       20.1545785843        2.5717732232
 Zn         3.7912253586        8.0911046427        3.9482356830
 Br         2.4787441180        9.4086158255        2.6349772723
 Zn         3.8807465345       18.9013522622       14.7662798363
 Br         2.5641014178       20.2186748314       13.4553529158
 Zn         8.0083768768       14.7561526878       14.7561454116
 Br         9.3100934456       13.4346228203       13.4346260079
 Zn         7.9213791649        3.9420880182        3.9420877370
 Br         9.2271690717        2.6224402812        2.6224393562
 Zn        18.8141841033       14.7161866557        3.9131267316
 Br        20.1269753880       13.3969170381        2.6025204690
 Zn        18.8141843353        3.9131249491       14.7161855582
 Br        20.1269751508        2.6025185241       13.3969188056
 Zn         5.9037827052        6.0098645916       16.8317529928
 Zn        16.7705558053       16.7846930338       16.7846904738
 Zn        16.6795135889        5.9635364032        5.9635367099
 Zn         5.9037851610       16.8317567344        6.0098593186
 Zn         5.8571893801        6.0123031205        6.0123021067
 Zn        16.7242201864       16.7825257335        5.9655234245
 Zn         5.9513939947       16.8295641221       16.8295601187
 Zn        16.7242199090        5.9655231141       16.7825259279
  N         3.7212572750        6.0118152505       16.8314919236
  N        14.5037669253        5.9760956178        5.9760967227
  N        18.9523763320       16.7858976297       16.7858994303
  N         8.0917866988       16.8393100253        6.0115178930
  N        18.8698387884        5.9617203394        5.9617190502
  N         8.0917846233        6.0115200777       16.8393006661
  N         3.7212574838       16.8315002752        6.0118050452
  N        14.5850925199       16.7963501441       16.7963268656
  N        16.6777215838        3.7838993179        5.9682880468
  N        16.7633092252       14.6054397843       16.7870161413
  N        16.7743910033       18.9757365681       16.7890683086
  N        16.6933051149        8.1546835091        5.9679023496
  N         5.9018590218       19.0187188083        6.0251270268
  N         5.9058624990        8.1953906684       16.8207618113
  N         5.9077221833        3.8264889335       16.8458833349
  N         5.9097039131       14.6462184849        6.0017570155
  N         5.9077140858       16.8458914614        3.8264835768
  N         5.9097003856        6.0017673220       14.6462168036
  N        16.7743927171       16.7890742769       18.9757353379
  N        16.6933068679        5.9679037330        8.1546832398
  N         5.9018504510        6.0251286726       19.0187156160
  N         5.9058977821       16.8207966866        8.1953837656
  N        16.6777223422        5.9682876553        3.7838999909
  N        16.7633077744       16.7870222002       14.6054383072
  N         5.8515353365        3.8290131733        6.0140295666
  N         5.9448526130       14.6454619245       16.8292199811
  N        16.7191742104       18.9738827398        5.9605024726
  N        16.7237026553        8.1558087845       16.7959332456
  N         5.9578347000       19.0159220159       16.8293712654
  N         5.8733493594        8.1959510346        6.0079464905
  N        16.7321223666        3.7856032132       16.7752145517
  N        16.7340214988       14.6045847577        5.9788045898
  N         3.7628205888       16.8403484610       16.8403422284
  N        14.5419222497       16.7814264072        5.9681536601
  N        18.9110920251       16.7971624749        5.9745743212
  N         8.1350165285       16.8244425778       16.8244006232
  N        18.9110918723        5.9745795262       16.7971610402
  N         8.0536319714        6.0071219512        6.0071221261
  N         3.6785067317        6.0262038103        6.0262023076
  N        14.5419218619        5.9681528701       16.7814219717
  N        16.7191747100        5.9605034892       18.9738827663
  N        16.7236996591       16.7959385737        8.1558081582
  N        16.7321258518       16.7752175044        3.7856020838
  N        16.7340213702        5.9788037828       14.6045845991
  N         5.8515309994        6.0140301398        3.8290112226
  N         5.9448832484       16.8292610699       14.6454554894
  N         5.9578223001       16.8293897641       19.0159182248
  N         5.8733483088        6.0079542186        8.1959498768
  C        11.3506275534       15.7532227339       15.7532157991
  H        11.3425090599       14.9777169923       14.9776991912
  C        11.2689997357        4.9340565244        4.9340572631
  H        11.2600458912        4.1585949800        4.1585950909
  C         0.5083049250       15.7595053197        4.9348269587
  H         0.5200771639       14.9846138893        4.1588027689
  C         0.5083059654        4.9348263424       15.7595052220
  H         0.5200779028        4.1588061217       14.9846129742
  C        11.3146332718        7.0480466053       15.7540875594
  H        11.3120028895        7.8234701073       14.9784724254
  C        11.3194218193       17.8688135371        4.9327196323
  H        11.3223910977       18.6440889135        4.1569817187
  C         0.4543755190        7.0591777267        4.9437764375
  H         0.4540882955        7.8358786167        4.1694340851
  C         0.5373116041       17.8777237823       15.7628454735
  H         0.5377319647       18.6544402615       14.9885051026
  C        11.3146331757       15.7540853125        7.0480470141
  H        11.3120020019       14.9784749478        7.8234712401
  C        11.3194199177        4.9327216080       17.8688177039
  H        11.3223879879        4.1569851038       18.6440897783
  C         0.5373102736       15.7628447864       17.8777223948
  H         0.5377315317       14.9885013067       18.6544402849
  C         0.4543758221        4.9437742867        7.0591745115
  H         0.4540886458        4.1694310982        7.8358727438
  C        11.2895012007        7.0491071928        7.0491091415
  H        11.2981576275        7.8246066061        7.8246088654
  C        11.3695227270       17.8682832660       17.8682765556
  H        11.3781616418       18.6437956009       18.6437781504
  C         0.4841369779        7.0514866376       17.8727955887
  H         0.4726727551        7.8275560873       18.6476903770
  C         0.4841361727       17.8727976403        7.0514876532
  H         0.4726718998       18.6476917990        7.8275506353
  C        15.6886150537       11.3860834905       15.7317161705
  H        14.9127256779       11.3907173845       14.9566049347
  C        15.6361118360        0.5535015962        4.9082306423
  H        14.8596387464        0.5480903092        4.1337277927
  C         4.8299828242       11.4259503991        4.9522024003
  H         4.0464560678       11.4302114364        4.1848160633
  C         4.8754401676        0.5955256352       15.7827447004
  H         4.0991803535        0.5899257078       15.0079542761
  C        15.6563065181       11.3849944474        7.0304758167
  H        14.8816944039       11.3894664322        7.8068974740
  C        15.6968648914        0.5560799749       17.8382744123
  H        14.9219453616        0.5511486820       18.6144370520
  C         4.8703302720       11.4255395287       17.8841981901
  H         4.0957085384       11.4298440492       18.6606799867
  C         4.8169268847        0.5973888126        7.0781932720
  H         4.0413092130        0.5913006541        7.8535018225
  C         6.9838226053       11.4154028192       15.7673142112
  H         7.7585740191       11.4112743315       14.9910126881
  C         6.9307281468        0.6105574728        4.9619043178
  H         7.7048463639        0.6170246256        4.1849451221
  C        17.7687362225       11.3750072403        4.9127586595
  H        18.5429273830       11.3703472080        4.1359530504
  C        17.8087173541        0.5658504081       15.7197041630
  H        18.5820755633        0.5704839569       14.9421004675
  C         6.9652751788       11.4155570844        7.0463647811
  H         7.7443592525       11.4109025291        7.8182355569
  C         6.9898083449        0.6069041649       17.8982782642
  H         7.7647896355        0.6126168442       18.6742945873
  C        17.8045175433       11.3756813172       17.8462944738
  H        18.5806741168       11.3707103821       18.6211913981
  C        17.7515259988        0.5648434545        7.0230642610
  H        18.5268671181        0.5699327263        7.7987725153
  C        15.6886125229       15.7317199557       11.3860823933
  H        14.9127221974       14.9566089855       11.3907169974
  C        15.6361135296        4.9082292496        0.5535031938
  H        14.8596418758        4.1337262023        0.5480912824
  C         4.8754430413       15.7827471354        0.5955224401
  H         4.0991756214       15.0079571024        0.5899223884
  C         4.8299830363        4.9522030529       11.4259498593
  H         4.0464553139        4.1848203429       11.4302114966
  C         6.9838145922       15.7673055704       11.4153982700
  H         7.7585781801       14.9910158569       11.4112707085
  C         6.9307298506        4.9619070768        0.6105560959
  H         7.7048455984        4.1849499460        0.6170219618
  C        17.8087202079       15.7197073700        0.5658504057
  H        18.5820796707       14.9421042020        0.5704824824
  C        17.7687397445        4.9127600116       11.3750065667
  H        18.5429303575        4.1359554531       11.3703468949
  C        15.6563094934        7.0304771340       11.3849937149
  H        14.8816970496        7.8068990137       11.3894661083
  C        15.6968699565       17.8382792707        0.5560811757
  H        14.9219531448       18.6144441674        0.5511505652
  C         4.8169277200        7.0781940848        0.5973889904
  H         4.0413062429        7.8535033733        0.5913006675
  C         4.8703186086       17.8841927764       11.4255356637
  H         4.0957104550       18.6606847655       11.4298388816
  C         6.9652755628        7.0463619055       11.4155562549
  H         7.7443628676        7.8182375884       11.4109016938
  C         6.9898085245       17.8982787314        0.6068990956
  H         7.7647859218       18.6742997222        0.6126136499
  C        17.7515257282        7.0230657994        0.5648453726
  H        18.5268659283        7.7987748460        0.5699345233
  C        17.8045110667       17.8463014759       11.3756801913
  H        18.5806649068       18.6212020263       11.3707094319
 Xe         4.8491034886        9.9353169372        9.9353151341
