     409
 i =      56, E =    -5133.8834724753
  N         2.9964607558        5.2310072222       16.0596024346
  C         1.6766862530        5.4957792480       16.3208494434
  N        13.7637943725        5.2061881884        5.2061893116
  C        12.4484885347        5.4833135920        5.4833143228
  N        19.7115060863       17.5765516142       16.0199533874
  C        21.0293753310       17.3210358259       16.3051522095
  N         8.8555137767       17.6170895692        5.2341408475
  C        10.1729078373       17.3344129922        5.4933821417
  N        19.6320604794        5.1984220112        6.7541901460
  C        20.9493637536        5.4863796790        6.5020075140
  N         8.8555129206        5.2341374199       17.6170859398
  C        10.1729069062        5.4933760876       17.3344071870
  N         2.9820204892       17.6077150107        6.7937187269
  C         1.6665065820       17.3332151105        6.5145828481
  N        13.8588563297       17.5783487498       17.5783474174
  C        12.5397727015       17.3134043448       17.3134028667
  N        15.9133458057        3.0396545436        5.1959511730
  C        16.1914314881        1.7225030641        5.4638523139
  N        15.9983434170       13.8645833159       16.0153657028
  C        16.2627400598       12.5462045583       16.2854800053
  N        16.0072723232       19.7246652306       17.5721353614
  C        16.2672785364       21.0427456037       17.2970714359
  N        15.9370882838        8.9095783350        6.7539991238
  C        16.2121370449       10.2263146666        6.4840765076
  N         6.6920055129       19.7757319716        5.2500665440
  C         6.4089197889       21.0913203836        5.5180033746
  N         6.7097790755        8.9436488090       16.0576974602
  C         6.4459865315       10.2625501248       16.3284075392
  N         6.7052165295        3.0887154829       17.6294785186
  C         6.4457436677        1.7693435245       17.3565458111
  N         6.6922396446       13.9037950375        6.7945310934
  C         6.4106664762       12.5870288517        6.5309100228
  N         5.1518922296       16.0702726055        3.0802452398
  C         5.4308141211       16.3400114922        1.7641575276
  N         5.1367149672        5.2388446578       13.9095107559
  C         5.3941977608        5.5160726355       12.5911374063
  N        17.5567424644       16.0109083209       19.7296065772
  C        17.2796839518       16.2783682063       21.0467616381
  N        17.4857720287        5.1923252190        8.9039615064
  C        17.2242485269        5.4651031037       10.2225104071
  N         5.1336680806        6.8041564161       19.7641963234
  C         5.3926231532        6.5332118432       21.0843779215
  N         5.1487982768       17.6081604745        8.9500877171
  C         5.4281158730       17.3419254103       10.2667399182
  N        17.4737465483        6.7480162351        3.0452527718
  C        17.2092665762        6.4775270187        1.7270687648
  N        17.5560461808       17.5693521589       13.8589544119
  C        17.2793249883       17.3002718659       12.5421317302
  N         5.0957520398        3.0846090647        6.8012268526
  C         5.3727933996        1.7672489193        6.5319129163
  N         5.1760395201       13.9064494918       17.6145920061
  C         5.4410887272       12.5878986863       17.3445547801
  N        17.5080065939       19.7308297972        6.7445237037
  C        17.2275374234       21.0465473125        6.4758846429
  N        17.5208656614        8.9024318926       17.5779008925
  C        17.2616461237       10.2210458625       17.3037001547
  N         5.1898271116       19.7649347487       16.0613748260
  C         5.4509841207       21.0830587585       16.3359254244
  N         5.1028562005        8.9537807700        5.2485244831
  C         5.3782105310       10.2702505504        5.5199384639
  N        17.5262258361        3.0476528019       16.0061046343
  C        17.2634313573        1.7284247763       16.2760773121
  N        17.5198872413       13.8604325316        5.2033883679
  C        17.2409855899       12.5436397960        5.4698934801
  N         3.0289842417       16.0665202061       17.6222967851
  C         1.7112572699       16.3285071405       17.3441268373
  N        13.8098846360       16.0183190121        6.7565028418
  C        12.4926369447       16.2970702973        6.4930294590
  N        19.6807262436       16.0229724239        5.2048218825
  C        20.9958127429       16.3020377487        5.4810522357
  N         8.8902685494       16.0460255265       16.0460233313
  C        10.2103421295       16.3099544121       16.3099521155
  N        19.6648519175        6.7566721913       17.5828454905
  C        20.9851336017        6.4955759489       17.3189038370
  N         8.8201787400        6.7884754127        6.7884748657
  C        10.1360793714        6.5125940572        6.5125939068
  N         2.9480473073        6.8063412753        5.2502713837
  C         1.6303715901        6.5283467100        5.5125948593
  N        13.8098841954        6.7565004706       16.0183182714
  C        12.4926363440        6.4930240676       16.2970663681
  N        15.9544962188        5.1869730637       19.7210823741
  C        16.2122724809        5.4599597691       21.0405958937
  N        15.9677704585       16.0199367248        8.9089390060
  C        16.2468227107       16.2873496154       10.2253924200
  N        15.9689260306       17.5610075051        3.0392952533
  C        16.2480802957       17.2922056024        1.7232849025
  N        15.9625812455        6.7585088630       13.8657518731
  C        16.2257020555        6.4861272722       12.5473727423
  N         6.6492197569        5.2426158261        3.0904849507
  C         6.3872019766        5.5149347416        1.7722622283
  N         6.7294634844       16.0569853119       13.9008080392
  C         6.4560453571       16.3282523157       12.5839868933
  N         6.7495543204       17.6134542620       19.7689606349
  C         6.4685415002       17.3498430618       21.0867048871
  N         6.6656627942        6.7967855896        8.9470716929
  C         6.3978070609        6.5313756081       10.2657964671
  N        19.6648519795       17.5828445242        6.7566698373
  C        20.9851336514       17.3189041246        6.4955727126
  N         8.9029847821       17.6013985681       17.6013957321
  C        10.2187856479       17.3256465919       17.3256438929
  N         2.9480474376        5.2502706879        6.8063418945
  C         1.6303716401        5.5125940496        6.5283474391
  N        13.8114504650        5.1969990112       17.5703236792
  C        12.4937538612        5.4764378814       17.3117684740
  N         3.0289841474       17.6222975748       16.0665198062
  C         1.7112570653       17.3441273682       16.3285068602
  N        13.8114514158       17.5703246062        5.1970018500
  C        12.4937546481       17.3117726765        5.4764435336
  N        19.6807256625        5.2048241339       16.0229735973
  C        20.9958123438        5.4810553592       16.3020375950
  N         8.8075474271        5.2332022045        5.2332018851
  C        10.1271566328        5.4970393881        5.4970394443
  N         6.7495549361       19.7689616656       17.6134528025
  C         6.4685425422       21.0867058862       17.3498412474
  N         6.6656621633        8.9470713986        6.7967857674
  C         6.3978063613       10.2657961446        6.5313757106
  N         6.6492205130        3.0904850805        5.2426159543
  C         6.3872028894        1.7722623828        5.5149349386
  N         6.7294624329       13.9008086353       16.0569834343
  C         6.4560437406       12.5839874640       16.3282500290
  N        15.9689232996        3.0392950286       17.5610075262
  C        16.2480764862        1.7232850471       17.2922036725
  N        15.9625826840       13.8657506509        6.7585083529
  C        16.2257037250       12.5473714141        6.4861275162
  N        15.9544958824       19.7210806332        5.1869731085
  C        16.2122714922       21.0405941172        5.4599608119
  N        15.9677720619        8.9089394115       16.0199364046
  C        16.2468262871       10.2253931974       16.2873468253
  N        17.5080067637        6.7445238859       19.7308316842
  C        17.2275383104        6.4758837255       21.0465493425
  N        17.5208641421       17.5779014929        8.9024311563
  C        17.2616422817       17.3037027464       10.2210450254
  N         5.0957511375        6.8012265984        3.0846090227
  C         5.3727924183        6.5319126610        1.7672488483
  N         5.1760407484       17.6145941553       13.9064487829
  C         5.4410904955       17.3445572416       12.5878979502
  N        17.5262282568       16.0061046866        3.0476522570
  C        17.2634351466       16.2760789199        1.7284242963
  N        17.5198858439        5.2033889896       13.8604342537
  C        17.2409838846        5.4698932876       12.5436415500
  N         5.1898268065       16.0613759511       19.7649337096
  C         5.4509832951       16.3359270352       21.0830576800
  N         5.1028570057        5.2485242219        8.9537812003
  C         5.3782113238        5.5199382642       10.2702509646
  N        17.5567404518       19.7296074440       16.0109059547
  C        17.2796804747       21.0467617581       16.2783656982
  N        17.4857728021        8.9039596115        5.1923262017
  C        17.2242498521       10.2225086398        5.4651040739
  N         5.1518919876        3.0802461848       16.0702720307
  C         5.4308146630        1.7641584994       16.3400100730
  N         5.1367149136       13.9095105865        5.2388440349
  C         5.3941972869       12.5911371254        5.5160723811
  N        17.4737458998        3.0452508215        6.7480182543
  C        17.2092655387        1.7270668172        6.4775291304
  N        17.5560486999       13.8589560487       17.5693491858
  C        17.2793293319       12.5421322162       17.3002684411
  N         5.1336686143       19.7641963880        6.8041558450
  C         5.3926239148       21.0843779830        6.5332117149
  N         5.1487973565        8.9500884944       17.6081594955
  C         5.4281142739       10.2667405813       17.3419234386
  N        19.6320604671        6.7541891300        5.1984230995
  C        20.9493637735        6.5020064966        5.4863807141
  N         8.8540333320        6.7816810327       16.0535429349
  C        10.1718335981        6.5053971520       16.3151463566
  N         2.9820204854        6.7937214357       17.6077139595
  C         1.6665065358        6.5145863643       17.3332135607
  N        13.7787958861        6.7625829558        6.7625835777
  C        12.4582604639        6.4991236953        6.4991241189
  N         2.9964612318       16.0596033647        5.2310047974
  C         1.6766866161       16.3208507894        5.4957758560
  N        13.8475976832       16.0222708014       16.0222696624
  C        12.5318273503       16.2977775797       16.2977762991
  N        19.7115062233       16.0199537202       17.5765511492
  C        21.0293754859       16.3051524767       17.3210353513
  N         8.8540337280       16.0535461398        6.7816839100
  C        10.1718341692       16.3151517900        6.5054029154
  N         6.7052167268       17.6294791305        3.0887147492
  C         6.4457430284       17.3565473176        1.7693426141
  N         6.6922394593        6.7945320728       13.9037951213
  C         6.4106667688        6.5309104147       12.5870290381
  N         6.6920051405        5.2500670960       19.7757318223
  C         6.4089190227        5.5180034997       21.0913201966
  N         6.7097796101       16.0576982178        8.9436483425
  C         6.4459879748       16.3284093159       10.2625496388
  N        16.0072751825       17.5721375970       19.7246649705
  C        16.2672820392       17.2970744239       21.0427458421
  N        15.9370874929        6.7539981371        8.9095795539
  C        16.2121357386        6.4840755388       10.2263160251
  N        15.9133465355        5.1959491455        3.0396561923
  C        16.1914326186        5.4638501986        1.7225048043
  N        15.9983399532       16.0153682389       13.8645819786
  C        16.2627359860       16.2854838483       12.5462042261
 Zn        14.7053347466       14.7255666169       14.7255660127
 Br        13.3782212935       13.4175971608       13.4175972972
 Zn        14.6149483690        3.9067313848        3.9067327800
 Br        13.2921109284        2.5969204295        2.5969209133
 Zn         3.8573233508       14.7730390951        3.9376838888
 Br         2.5431704667       13.4624951876        2.6187986501
 Zn         3.8573227970        3.9376851518       14.7730392038
 Br         2.5431699439        2.6188002005       13.4624951313
 Zn         7.9976500810        8.0747169582       14.7639689067
 Br         9.3083497168        9.3870115632       13.4428390792
 Zn         7.9934765670       18.9256276784        3.9561311633
 Br         9.3084981096       20.2395872236        2.6424957087
 Zn        18.7718487120        8.0400685642        3.8985629015
 Br        20.0877758914        9.3499038269        2.5810638953
 Zn        18.8473612037       18.8657740078       14.7193334362
 Br        20.1643173665       20.1745021851       13.4013368924
 Zn         7.9976499927       14.7639689084        8.0747164377
 Br         9.3083495580       13.4428391201        9.3870111815
 Zn         7.9934758838        3.9561313852       18.9256275915
 Br         9.3084976688        2.6424958800       20.2395868161
 Zn        18.8473626952       14.7193337410       18.8657742803
 Br        20.1643184599       13.4013367487       20.1745022919
 Zn        18.7718483658        3.8985622775        8.0400703833
 Br        20.0877764000        2.5810635953        9.3499049807
 Zn        14.6510870637        8.0538520631        8.0538525466
 Br        13.3419140131        9.3713069798        9.3713067005
 Zn        14.7196207326       18.8710913209       18.8710913137
 Br        13.4119334220       20.1885761328       20.1885766350
 Zn         3.8433194709        8.0961590838       18.8908348934
 Br         2.5319779800        9.4135037395       20.2062721208
 Zn         3.8433194021       18.8908347624        8.0961576355
 Br         2.5319777366       20.2062716589        9.4135024056
 Zn        14.6699878354       14.7267961273        8.0533060621
 Br        13.3557020615       13.4176754563        9.3721408717
 Zn        14.6686086811        3.8936763335       18.8519188497
 Br        13.3554349154        2.5774324159       20.1663167919
 Zn         3.8922522180       14.7715064991       18.9112377499
 Br         2.5768914203       13.4607676691       20.2288522924
 Zn         3.8076888954        3.9533099450        8.0985335674
 Br         2.4952053736        2.6406660575        9.4163383655
 Zn         7.9587130586        8.0810697150        8.0810696176
 Br         9.2793724819        9.3934058471        9.3934054543
 Zn         8.0500555188       18.8953280049       18.8953269319
 Br         9.3700433721       20.2077378660       20.2077369885
 Zn        18.8012762060        8.0424961765       18.8796947631
 Br        20.1192852909        9.3523835959       20.1953554232
 Zn        18.8012764463       18.8796932774        8.0424946078
 Br        20.1192857437       20.1953534416        9.3523820645
 Zn        14.6699872214        8.0533064507       14.7267978475
 Br        13.3557015580        9.3721412785       13.4176769835
 Zn        14.6686092101       18.8519159094        3.8936762881
 Br        13.3554360621       20.1663150178        2.5774327997
 Zn         3.8076878532        8.0985329805        3.9533102192
 Br         2.4952042456        9.4163381344        2.6406667299
 Zn         3.8922521181       18.9112386943       14.7715061649
 Br         2.5768912024       20.2288528280       13.4607671958
 Zn         8.0163737619       14.7597639939       14.7597633355
 Br         9.3206624557       13.4392808262       13.4392800756
 Zn         7.9406454206        3.9465438073        3.9465434749
 Br         9.2444884408        2.6265479562        2.6265469997
 Zn        18.8230856859       14.7199237283        3.9163965769
 Br        20.1349820264       13.4014141954        2.6037818599
 Zn        18.8230848565        3.9163985148       14.7199254580
 Br        20.1349813269        2.6037840519       13.4014158544
 Zn         5.9217321952        6.0128501359       16.8367848124
 Zn        16.7809662627       16.7893379782       16.7893369929
 Zn        16.7023413246        5.9677518804        5.9677540081
 Zn         5.9217327877       16.8367848115        6.0128495875
 Zn         5.8792561279        6.0173138344        6.0173139712
 Zn        16.7404332182       16.7889385817        5.9696269224
 Zn         5.9608542013       16.8334276486       16.8334268439
 Zn        16.7404316616        5.9696276616       16.7889419106
  N         3.7360999240        6.0156372826       16.8366035654
  N        14.5176507666        5.9809996765        5.9810007355
  N        18.9652903152       16.7902187025       16.7902189624
  N         8.1079236758       16.8404945314        6.0124966376
  N        18.8853339863        5.9665949272        5.9665960093
  N         8.1079229829        6.0124951714       16.8404926436
  N         3.7361001063       16.8366042268        6.0156352475
  N        14.5998968482       16.7978015027       16.7978003572
  N        16.6905439723        3.7888088854        5.9727867904
  N        16.7799741375       14.6083583719       16.7920280858
  N        16.7862844871       18.9799670826       16.7938132912
  N        16.7081119611        8.1595704317        5.9723547268
  N         5.9190244411       19.0233892275        6.0280132971
  N         5.9251647615        8.2001250516       16.8316627383
  N         5.9238238782        3.8310117223       16.8506842336
  N         5.9210188722       14.6534653439        6.0126785526
  N         5.9238244641       16.8506842888        3.8310108484
  N         5.9210185511        6.0126796391       14.6534655532
  N        16.7862865208       16.7938148953       18.9799671286
  N        16.7081115165        5.9723537557        8.1595720111
  N         5.9190241995        6.0280140335       19.0233890753
  N         5.9251650676       16.8316630416        8.2001245470
  N        16.6905444079        5.9727848861        3.7888107484
  N        16.7799716954       16.7920298440       14.6083579352
  N         5.8691693429        3.8342001093        6.0207857425
  N         5.9548858814       14.6504202792       16.8353365809
  N        16.7370922800       18.9789354105        5.9643896269
  N        16.7394426045        8.1586434078       16.8008771727
  N         5.9743880050       19.0203406242       16.8341643349
  N         5.8826425439        8.2036246539        6.0212088698
  N        16.7434786933        3.7898658429       16.7832954714
  N        16.7451090569       14.6094900023        5.9824798875
  N         3.7758142161       16.8480702439       16.8480698335
  N        14.5573790159       16.7893451680        5.9724374817
  N        18.9261119288       16.7993865722        5.9773514064
  N         8.1498394605       16.8265639531       16.8265615730
  N        18.9261116055        5.9773532756       16.7993883658
  N         8.0667740431        6.0136722710        6.0136716131
  N         3.6945706506        6.0318151925        6.0318157881
  N        14.5573783450        5.9724365268       16.7893464237
  N        16.7370920463        5.9643902183       18.9789373496
  N        16.7394421301       16.8008760603        8.1586424690
  N        16.7434806738       16.7832942760        3.7898654522
  N        16.7451078834        5.9824808394       14.6094916457
  N         5.8691685639        6.0207855909        3.8342000201
  N         5.9548866953       16.8353382924       14.6504196138
  N         5.9743878160       16.8341653495       19.0203395946
  N         5.8826432136        6.0212086440        8.2036250295
  C        11.3654634533       15.7541818415       15.7541795269
  H        11.3570971716       14.9787268083       14.9787234985
  C        11.2815086185        4.9405709092        4.9405714399
  H        11.2714849320        4.1650815127        4.1650821697
  C         0.5238984076       15.7623304769        4.9382360402
  H         0.5368845329       14.9874933332        4.1621544325
  C         0.5238977951        4.9382396686       15.7623294118
  H         0.5368836108        4.1621581606       14.9874922494
  C        11.3309783255        7.0482509446       15.7555161319
  H        11.3291379372        7.8229427953       14.9791612134
  C        11.3346066748       17.8734809543        4.9357198473
  H        11.3368042520       18.6498671223        4.1610750186
  C         0.4698192699        7.0670077374        4.9519140580
  H         0.4695342734        7.8439195112        4.1778132859
  C         0.5503564997       17.8838274116       15.7690519226
  H         0.5508311648       18.6609713383       14.9951947913
  C        11.3309786730       15.7555219129        7.0482574990
  H        11.3291379669       14.9791673918        7.8229498383
  C        11.3346054811        4.9357126121       17.8734745867
  H        11.3368024714        4.1610669693       18.6498598636
  C         0.5503565446       15.7690519934       17.8838268362
  H         0.5508315224       14.9951946170       18.6609706767
  C         0.4698194346        4.9519130930        7.0670085170
  H         0.4695345320        4.1778123020        7.8439201874
  C        11.3033354129        7.0553952406        7.0553952703
  H        11.3126609338        7.8308637486        7.8308636636
  C        11.3848807530       17.8692691303       17.8692661837
  H        11.3939484624       18.6447887329       18.6447844335
  C         0.4982615956        7.0552905386       17.8752738559
  H         0.4857282922        7.8314561885       18.6501203277
  C         0.4982613925       17.8752752438        7.0552866613
  H         0.4857275341       18.6501218688        7.8314520548
  C        15.7053159725       11.3889566650       15.7363378682
  H        14.9293085541       11.3938718216       14.9613756524
  C        15.6507966966        0.5576482180        4.9136141377
  H        14.8735128983        0.5510140733        4.1399220997
  C         4.8338501908       11.4334689404        4.9709012069
  H         4.0571014765       11.4378129507        4.1966595619
  C         4.8901695769        0.5999579645       15.7895683714
  H         4.1129585151        0.5938338943       15.0157554696
  C        15.6700646153       11.3894655890        7.0357647754
  H        14.8961233332       11.3935636205        7.8128467286
  C        15.7083248148        0.5597192760       17.8448124723
  H        14.9334938269        0.5540759705       18.6209981940
  C         4.8851470808       11.4297232684       17.8932405848
  H         4.1095897316       11.4336552491       18.6687136417
  C         4.8327856077        0.6015853635        7.0815950155
  H         4.0569489217        0.5946348812        7.8567295192
  C         7.0014247087       11.4208450938       15.7792677181
  H         7.7768566620       11.4172256956       15.0036733357
  C         6.9464574213        0.6159925949        4.9657734021
  H         7.7202115759        0.6232597246        4.1885010022
  C        17.7809197026       11.3803103158        4.9163130050
  H        18.5545721795       11.3758528346        4.1389760298
  C        17.8194222368        0.5707539406       15.7256547305
  H        18.5922436780        0.5761314120       14.9474928221
  C         6.9535427458       11.4234363065        7.0813260543
  H         7.7305132445       11.4188768766        7.8553491899
  C         7.0063875459        0.6116335921       17.9029614148
  H         7.7817184666        0.6178899276       18.6786060344
  C        17.8211014181       11.3783308675       17.8509947265
  H        18.5972502416       11.3731877526       18.6258747730
  C        17.7679783374        0.5705867823        7.0265514111
  H        18.5437048000        0.5769577086        7.8018479849
  C        15.7053107206       15.7363416754       11.3889561348
  H        14.9293028949       14.9613806632       11.3938715274
  C        15.6507979765        4.9136123017        0.5576498225
  H        14.8735142960        4.1399201892        0.5510155279
  C         4.8901686521       15.7895701261        0.5999569628
  H         4.1129574566       15.0157573145        0.5938329042
  C         4.8338509346        4.9709010824       11.4334693191
  H         4.0571023306        4.1966593734       11.4378135763
  C         7.0014265660       15.7792701011       11.4208446520
  H         7.7768588164       15.0036759388       11.4172255046
  C         6.9464565069        4.9657733126        0.6159924353
  H         7.7202106408        4.1885009088        0.6232595208
  C        17.8194262784       15.7256576190        0.5707532300
  H        18.5922485570       14.9474958986        0.5761305531
  C        17.7809180095        4.9163122460       11.3803123580
  H        18.5545702990        4.1389751782       11.3758553926
  C        15.6700629032        7.0357640400       11.3894666833
  H        14.8961214535        7.8128458053       11.3935643186
  C        15.7083295545       17.8448155123        0.5597197235
  H        14.9334991283       18.6210023011        0.5540771642
  C         4.8327846132        7.0815948275        0.6015853075
  H         4.0569478276        7.8567292867        0.5946349157
  C         4.8851492454       17.8932432627       11.4297225359
  H         4.1095922974       18.6687166766       11.4336544794
  C         6.9535433177        7.0813261963       11.4234365604
  H         7.7305138391        7.8553493370       11.4188771642
  C         7.0063862794       17.9029635221        0.6116326453
  H         7.7817167820       18.6786084935        0.6178889073
  C        17.7679795055        7.0265498185        0.5705890057
  H        18.5437059623        7.8018464169        0.5769605352
  C        17.8210967640       17.8509990760       11.3783298459
  H        18.5972443487       18.6258794246       11.3731867797
 Xe         3.8784549418        9.5285854966        9.5285854279
