     409
 i =      56, E =    -5133.8637539556
  N         2.7997113559        5.2118222412       15.9718490752
  C         1.4822616876        5.4979298475       16.2302798999
  N        13.5718394380        5.1230831045        5.0833970856
  C        12.2517035817        5.3607914335        5.3801415593
  N        19.6253679503       17.6224658103       16.0344271476
  C        20.9421641177       17.3396707187       16.2985976496
  N         8.7486963355       17.5400774567        5.2131626267
  C        10.0677315885       17.2680785602        5.4753666910
  N        19.4326163549        5.2370638762        6.7814582669
  C        20.7540971900        5.4965906707        6.5133330721
  N         8.6565465893        5.1661982610       17.5650391571
  C         9.9767712409        5.4052477737       17.2795467024
  N         2.8874578414       17.5338201476        6.7814975545
  C         1.5691290092       17.2761785922        6.5058814973
  N        13.7576867384       17.6341857232       17.6132673244
  C        12.4409263304       17.3523202719       17.3462567768
  N        15.7666597774        3.0245368901        5.1805967952
  C        16.0600589260        1.7144589172        5.4614018431
  N        15.9398864867       13.9173964066       16.0232373729
  C        16.1996940559       12.5987063190       16.2947014181
  N        15.9194057112       19.7775615677       17.5865325690
  C        16.1527374729       21.0955203215       17.2884215011
  N        15.7728534778        8.8990492397        6.6823180597
  C        16.0805512614       10.2169058700        6.4519423270
  N         6.5721656799       19.6944667406        5.2169738362
  C         6.2638546757       21.0078698543        5.4655332277
  N         6.5894888759        8.8881721506       15.9991627448
  C         6.3431971859       10.2105253764       16.2773197387
  N         6.5045507495        3.0499390611       17.5729339714
  C         6.2613158658        1.7294124017       17.3000246766
  N         6.5807092199       13.8103968211        6.7377170128
  C         6.2971285621       12.4961150365        6.4596666202
  N         5.0352888824       16.0060271233        3.0449556258
  C         5.3118499801       16.2824457578        1.7294357362
  N         4.9469091562        5.1688742665       13.8380497206
  C         5.2009870687        5.4396881979       12.5175407018
  N        17.4709627501       16.0584767911       19.7483246591
  C        17.1829169115       16.3099019681       21.0657493529
  N        17.1921364575        5.2903849572        8.8790593490
  C        16.9179797901        5.5709989319       10.1943334574
  N         4.9426020871        6.7708932491       19.6904446397
  C         5.1915883418        6.4912099975       21.0107323324
  N         5.0640819823       17.5229876048        8.9195082575
  C         5.3548890189       17.2638047208       10.2342714210
  N        17.3474060941        6.7015367241        3.0176440566
  C        17.0943501935        6.4290117649        1.6994399542
  N        17.4711618932       17.6236347141       13.8764561059
  C        17.1879416078       17.3499193557       12.5615031290
  N         4.8879895223        2.9924151946        6.7075926901
  C         5.1837709316        1.6765361222        6.4522702799
  N         5.0903484742       13.8605577592       17.5717271093
  C         5.3494681280       12.5420271599       17.2961026922
  N        17.4067608406       19.7402497290        6.7602416013
  C        17.1134580314       21.0541463743        6.4900097063
  N        17.3825231682        8.9450355810       17.6261093725
  C        17.1532002628       10.2658468919       17.3348634131
  N         5.0691545700       19.7089976785       16.0080784925
  C         5.3082791568       21.0309801473       16.2812140870
  N         4.9502251800        8.8772387207        5.1699562086
  C         5.2443341076       10.1904507748        5.4395851310
  N        17.3170143385        3.1114354147       15.9311756169
  C        17.0883707732        1.7877817321       16.2178604272
  N        17.4272377584       13.8571220151        5.2288647132
  C        17.1436724032       12.5389146816        5.4829302079
  N         2.9339418600       16.0129544512       17.5677412725
  C         1.6178693129       16.2970153452       17.3048500985
  N        13.7156337076       15.9893214925        6.7501851036
  C        12.3949524297       16.2482589172        6.4784428335
  N        19.5670795912       16.0184583711        5.2107206906
  C        20.8850183044       16.2823002233        5.4821354858
  N         8.8139035569       16.0287786900       16.0557858573
  C        10.1280253115       16.3114520698       16.3320350483
  N        19.4928240198        6.7940387147       17.5280405318
  C        20.8067702297        6.5221101324       17.2459521721
  N         8.6211536007        6.6179335374        6.7262888246
  C         9.9336550110        6.3363172228        6.4464321689
  N         2.7590725546        6.7479175282        5.1994179539
  C         1.4410514254        6.4901452823        5.4802839914
  N        13.6203667784        6.6927728345       16.0057793811
  C        12.3027640142        6.3937828249       16.2469627943
  N        15.8277111841        5.1714832543       19.6947604505
  C        16.0985772192        5.4263563781       21.0129635984
  N        15.8678817391       16.0464014686        8.9356369833
  C        16.1450819534       16.3249704106       10.2511110980
  N        15.8546765506       17.5507050508        3.0633583289
  C        16.1374661061       17.2936993409        1.7462496352
  N        15.6579118312        6.9069784293       13.8357152512
  C        15.9077867889        6.6097750424       12.5175745940
  N         6.4284946232        5.1584923226        3.0071855385
  C         6.1695341854        5.4443745883        1.6923171086
  N         6.6774164929       16.0088363033       13.8731435712
  C         6.4003488086       16.2696551848       12.5534913321
  N         6.6202903217       17.5820252770       19.7402280891
  C         6.3419476730       17.3087956364       21.0563208445
  N         6.4616310170        6.7077697960        8.8660161163
  C         6.1940029043        6.4485596350       10.1859278524
  N        19.5719645102       17.5755826184        6.7654378512
  C        20.8886811525       17.2962925058        6.4994184739
  N         8.7946762943       17.5992190680       17.5987395938
  C        10.1168146672       17.3362671271       17.3385795466
  N         2.7550812707        5.1928949469        6.7579553824
  C         1.4374547537        5.4785992442        6.5005014336
  N        13.6176597536        5.1929392521       17.6121246206
  C        12.3001403663        5.4201751080       17.3019866671
  N         2.9409272118       17.5608422952       16.0065829401
  C         1.6225854670       17.3091414343       16.2861729927
  N        13.7052097183       17.5659798662        5.2173215890
  C        12.3893291482       17.2801323063        5.4792092511
  N        19.4759752294        5.2690475397       15.9430531198
  C        20.7983058262        5.5213965957       16.2155196574
  N         8.6042363831        5.1070332795        5.1280785212
  C         9.9261377541        5.3521964251        5.4025067428
  N         6.6127296782       19.7375536264       17.5750737504
  C         6.3174219001       21.0500760182       17.3032197644
  N         6.5287633334        8.8499360871        6.7026095547
  C         6.2727805223       10.1730035155        6.4424041517
  N         6.4337715670        3.0035128420        5.1429035837
  C         6.1936263928        1.6855664140        5.4311725561
  N         6.6699723518       13.8525734580       16.0399101068
  C         6.3813950220       12.5349498469       16.2969857521
  N        15.7896258948        3.0847998631       17.5145524271
  C        16.0894121291        1.7736710867       17.2500694817
  N        15.8930223058       13.8550032092        6.8056584503
  C        16.1418298499       12.5380306193        6.5113083970
  N        15.8595415073       19.7132671315        5.1953861305
  C        16.1061274628       21.0346981256        5.4661635542
  N        15.8470709652        8.9628423410       16.0527885282
  C        16.1498952466       10.2777623539       16.3073541720
  N        17.3816977987        6.7285444710       19.7103414732
  C        17.1123997054        6.4432591077       21.0235753802
  N        17.4302678961       17.5957326313        8.9188601447
  C        17.1665378713       17.3350342599       10.2393964471
  N         4.8903064314        6.7310702167        3.0127272326
  C         5.1654170372        6.4713259423        1.6931467637
  N         5.1104107784       17.5535467327       13.8698616679
  C         5.3781838815       17.2788077301       12.5537617453
  N        17.4134932120       15.9990095226        3.0639471376
  C        17.1544156203       16.2796405591        1.7463355740
  N        17.2316558804        5.3609035456       13.8356745008
  C        16.9369504153        5.6080994904       12.5184447641
  N         5.0722243258       16.0181481732       19.7277373633
  C         5.3299448119       16.2893868548       21.0475482492
  N         4.9200394318        5.1385714849        8.8799426624
  C         5.1879386966        5.4234427614       10.1955151552
  N        17.4592953192       19.7881654154       16.0143237469
  C        17.1563306280       21.1046540667       16.2607675313
  N        17.3170781008        8.9012170757        5.1177502093
  C        17.0879507946       10.2176912895        5.4283971190
  N         4.9543543894        3.0249378809       16.0119796439
  C         5.2497881085        1.7114070103       16.2806171481
  N         5.0168784489       13.8348430378        5.1896065749
  C         5.2745057215       12.5127295682        5.4509922637
  N        17.2933320515        3.0626251723        6.7647718264
  C        17.0595113811        1.7372934089        6.4930595154
  N        17.4787407198       13.9054750327       17.5945925866
  C        17.2024501283       12.5887979356       17.3217180530
  N         5.0211603531       19.6774219736        6.7766292989
  C         5.2518475534       20.9969248814        6.4847124435
  N         5.0038892312        8.9074034891       17.5258765349
  C         5.3089319475       10.2212519422       17.2745028434
  N        19.4462992023        6.7655359273        5.2008013866
  C        20.7606780912        6.4981885629        5.4839737418
  N         8.6682013521        6.6460545572       15.9368214313
  C         9.9822962404        6.3686844342       16.2164618995
  N         2.8062459447        6.7740765854       17.5216823373
  C         1.4875952100        6.5130337537       17.2467015096
  N        13.5685932670        6.6465482646        6.6678849048
  C        12.2523722294        6.3519373657        6.4192537378
  N         2.8815691596       15.9969132608        5.2081407181
  C         1.5651554222       16.2698954920        5.4810914774
  N        13.7691625745       16.0635056656       16.0750539833
  C        12.4493482411       16.3268256979       16.3408174438
  N        19.6199246558       16.0658092320       17.5909597258
  C        20.9379402519       16.3245813723       17.3150930961
  N         8.7552439048       15.9515257870        6.7350506054
  C        10.0722145113       16.2319715995        6.4697141195
  N         6.5931502346       17.5595823479        3.0594567285
  C         6.3278081364       17.2979084500        1.7388916782
  N         6.4839480115        6.7428114234       13.8223610202
  C         6.2052642665        6.4665860782       12.5072007197
  N         6.4833704914        5.2018488425       19.7016941246
  C         6.1967883651        5.4656061682       21.0154034117
  N         6.6257892789       15.9714654388        8.9090868135
  C         6.3748106157       16.2521578783       10.2295570703
  N        15.9177762267       17.6176291863       19.7488863714
  C        16.1682524045       17.3267722581       21.0660175929
  N        15.6091229264        6.8239038175        8.8653542514
  C        15.8852028306        6.5679023796       10.1857298874
  N        15.7981220520        5.1394331669        3.0025319903
  C        16.0823295338        5.4101054511        1.6890771422
  N        15.9037992528       16.0797510772       13.8942382394
  C        16.1645790377       16.3419714810       12.5734846539
 Zn        14.6242325905       14.7901200490       14.7706261317
 Br        13.2047553999       13.5824246625       13.4646040727
 Zn        14.4915394608        3.8381645658        3.8351538319
 Br        13.2238053292        2.4924906449        2.5082807655
 Zn         3.7355039840       14.7159521502        3.8983391874
 Br         2.4065341119       13.4251880712        2.5744415665
 Zn         3.6621469963        3.8834741134       14.7146482335
 Br         2.3311567235        2.5630465703       13.4200494285
 Zn         7.8293595044        7.9909493757       14.6748401801
 Br         9.1241889514        9.2840858610       13.3211113023
 Zn         7.8861366584       18.8419908944        3.9376961799
 Br         9.1972301830       20.1671275034        2.6299413217
 Zn        18.6176002371        8.0218173040        3.8552427797
 Br        19.9552669466        9.3187338612        2.5484958172
 Zn        18.7668330155       18.9207734555       14.7371739010
 Br        20.0797689541       20.2350035743       13.4213372784
 Zn         7.8906575456       14.6589980318        8.0243431034
 Br         9.1818848146       13.3207198523        9.3390535591
 Zn         7.7882083289        3.9057927849       18.8746436550
 Br         9.1055595777        2.6005467463       20.1943186409
 Zn        18.7676962823       14.7694426935       18.8863819897
 Br        20.0744357379       13.4446381105       20.1988210358
 Zn        18.5244844400        3.9828340942        8.0706265028
 Br        19.8210539642        2.6879397626        9.4228398664
 Zn        14.3588580346        8.0690091152        7.8580599624
 Br        12.7502084792        9.6001073013        8.4085437572
 Zn        14.6336690864       18.9256378329       18.8916091981
 Br        13.3183582585       20.2295627154       20.2151132512
 Zn         3.6780729600        8.0699022573       18.8056695993
 Br         2.3782013936        9.4098550686       20.1096307062
 Zn         3.7498936061       18.8125620839        8.0808535862
 Br         2.4410733820       20.1243779754        9.4031855497
 Zn        14.5929646414       14.7385590111        8.0691294330
 Br        13.1693164849       13.5484430297        9.3895679777
 Zn        14.5081725189        3.8934781980       18.8574132948
 Br        13.2243191886        2.5501368419       20.1697918140
 Zn         3.7910685058       14.7190534083       18.8599809636
 Br         2.4657745268       13.4107124162       20.1688827710
 Zn         3.6157336901        3.8579631020        8.0147297831
 Br         2.2891897888        2.5547255737        9.3299039725
 Zn         7.7907037453        7.9532915883        7.9991130882
 Br         9.0835120578        9.2542147173        9.3476034202
 Zn         7.9040949737       18.8865763699       18.8799552064
 Br         9.2028581565       20.2117985921       20.2005834794
 Zn        18.6697508204        8.0477372612       18.8838575951
 Br        20.0145338580        9.3167176656       20.2104798831
 Zn        18.7156598798       18.8864417408        8.0455517214
 Br        20.0339426392       20.2151016342        9.3423716895
 Zn        14.4194840648        8.1616796531       14.8681973528
 Br        12.7699815134        9.7138909067       14.5108744118
 Zn        14.5591832506       18.8427791904        3.9128146303
 Br        13.2355103973       20.1457740195        2.5971505178
 Zn         3.6243041853        8.0341211738        3.8965315846
 Br         2.3209813748        9.3718362880        2.5938809867
 Zn         3.7979666881       18.8368246110       14.7081496124
 Br         2.4852181123       20.1476183929       13.3869649910
 Zn         7.9662898348       14.7231448592       14.7595361163
 Br         9.2712389511       13.4032309466       13.4395374037
 Zn         7.7193205150        3.8454442072        3.8355510057
 Br         9.0226492866        2.5284170848        2.5128788718
 Zn        18.7117896534       14.7152221988        3.9276514272
 Br        20.0140453416       13.3895082018        2.6121608837
 Zn        18.5581295905        4.0378940310       14.6374004310
 Br        19.8473768282        2.7392472941       13.2811692552
 Zn         5.7351990642        5.9635320886       16.7649444424
 Zn        16.7058537056       16.8543095784       16.8235517109
 Zn        16.4979371551        5.9684785596        5.9109248067
 Zn         5.8212484443       16.7573727936        5.9913368707
 Zn         5.6801280275        5.9294924857        5.9419282521
 Zn        16.6472046412       16.7923988604        5.9976671654
 Zn         5.8812544608       16.7869412093       16.8048557733
 Zn        16.5463683767        6.0312604414       16.7928927064
  N         3.5493067617        5.9858717423       16.7510851377
  N        14.3161298832        5.9033009585        5.8623511472
  N        18.8767244611       16.8494339420       16.8159034253
  N         8.0051961079       16.7438093719        5.9753867819
  N        18.6920668488        6.0025182208        5.9852160026
  N         7.9155773975        5.9177267615       16.7553895734
  N         3.6315817709       16.7618004084        5.9955186286
  N        14.5107191334       16.8539989639       16.8434236632
  N        16.5146362419        3.7896232573        5.9694878763
  N        16.7125830390       14.6590518609       16.8109888441
  N        16.7073941098       19.0367438500       16.8140374347
  N        16.5228620528        8.1542588649        5.8781464082
  N         5.8166213327       18.9394621544        6.0086442493
  N         5.7795528444        8.1516639857       16.7547787606
  N         5.7170997057        3.7839866798       16.7939959421
  N         5.8057765152       14.5692532583        5.9680083619
  N         5.8116413928       16.7787860340        3.7991199233
  N         5.7226996885        5.9562785748       14.5768489688
  N        16.7043625374       16.8483382455       19.0023703253
  N        16.4036905135        6.0487357354        8.1242584414
  N         5.7232741686        5.9903899929       18.9489655080
  N         5.8338566125       16.7413682627        8.1682861245
  N        16.5637484386        5.9224409216        3.7559924236
  N        16.6930489770       16.8542103429       14.6322067140
  N         5.6481971409        3.7447657972        5.9168144460
  N         5.8877520681       14.6032312525       16.8102957494
  N        16.6446993739       18.9801971166        5.9779523865
  N        16.5937353350        8.2081838824       16.8505594485
  N         5.8549725799       18.9764318236       16.7905705523
  N         5.7281316728        8.1170102389        5.9349184961
  N        16.5355927266        3.8445452893       16.7188283363
  N        16.6681691582       14.6031405719        6.0254365525
  N         3.6850819755       16.7788932528       16.7824937505
  N        14.4571711752       16.7853270607        5.9869968051
  N        18.8230479921       16.8003901386        5.9867567236
  N         8.0583884546       16.8087291905       16.8230222675
  N        18.7373750443        6.0365641411       16.7393364754
  N         7.8654536898        5.8729975685        5.9261631908
  N         3.5028225908        5.9620667804        5.9720199857
  N        14.3648011445        5.9659327473       16.8290533148
  N        16.6023901261        5.9590346304       18.9560370763
  N        16.6464657588       16.8164701149        8.1808262927
  N        16.6284657937       16.7695202549        3.8107782635
  N        16.4600580972        6.1434146293       14.5831066291
  N         5.6560898538        5.9380016025        3.7568438109
  N         5.8953912786       16.7848154899       14.6181953824
  N         5.8518884852       16.8001310732       18.9874442347
  N         5.6916402957        5.9166152294        8.1263403546
  C        11.2939034715       15.7644967962       15.7930168327
  H        11.3037432211       14.9834618614       15.0233713553
  C        11.0857296594        4.8172706213        4.8312495736
  H        11.0795737166        4.0625036360        4.0359057822
  C         0.4020477111       15.7290633634        4.9288085383
  H         0.3976942583       14.9576884944        4.1491625314
  C         0.3180879789        4.9656461253       15.6681180090
  H         0.3169375256        4.1958855519       14.8871004777
  C        11.1429917847        6.8908418658       15.6485083676
  H        11.1412496277        7.6396427605       14.8500407524
  C        11.2263850036       17.8329282040        4.9372049985
  H        11.2236975785       18.6222663047        4.1758404971
  C         0.2822383790        7.0411676145        4.9299288952
  H         0.2828279062        7.8104252034        4.1480657439
  C         0.4663442817       17.8743327750       15.7424196029
  H         0.4728739301       18.6496593884       14.9667170877
  C        11.2350990681       15.6792275151        7.0114738540
  H        11.2385774578       14.8910099377        7.7737867802
  C        11.1363889367        4.8817975487       17.8588193064
  H        11.1325807199        4.1405602928       18.6667389138
  C         0.4541016295       15.7628091624       17.8617905279
  H         0.4486689646       14.9895462190       18.6395478373
  C         0.2744316575        4.9454113953        7.0637286830
  H         0.2738880935        4.1771369603        7.8462534194
  C        11.0944022228        6.8679078340        7.0035312793
  H        11.0968627220        7.6310936302        7.7890553539
  C        11.2733216443       17.8982229718       17.8872629146
  H        11.2656256450       18.6800023218       18.6562837418
  C         0.3295219444        7.0640405044       17.7988039927
  H         0.3312316374        7.8335974749       18.5803629442
  C         0.4119061012       17.8333479818        7.0554613776
  H         0.4164696197       18.6056886723        7.8341242239
  C        15.6378716739       11.4475260729       15.7418440340
  H        14.8581763158       11.4610230655       14.9727496874
  C        15.5401064407        0.5426689060        4.9078084145
  H        14.7732941390        0.5253403200        4.1236532246
  C         4.7053924344       11.3614068054        4.9007276287
  H         3.9226314650       11.3754428293        4.1326255692
  C         4.7316573847        0.5379120624       15.7287212523
  H         3.9592332460        0.5167763711       14.9504782627
  C        15.5723138746       11.3783861821        7.0393830692
  H        14.7925735101       11.3777763489        7.8088799176
  C        15.5779657545        0.6086879087       17.8253193665
  H        14.8124946294        0.6007913203       18.6110208367
  C         4.7718141360       11.3864056032       17.8261765516
  H         3.9835062863       11.3934621180       18.5886233913
  C         4.6689095982        0.5088690159        7.0197140359
  H         3.8966567821        0.4957771032        7.7983433732
  C         6.9223879444       11.3680733650       15.7486991806
  H         7.7097812186       11.3625719221       14.9852975190
  C         6.7746330370        0.5347072359        4.8943342419
  H         7.5459401900        0.5482028983        4.1147184585
  C        17.6619321082       11.3782497386        4.9026471480
  H        18.4285000010       11.3788746512        4.1182972456
  C        17.6628404200        0.6317997580       15.6809966313
  H        18.4271985658        0.6393930788       14.8948134724
  C         6.8399205584       11.3248367736        6.9945130839
  H         7.6212151459       11.3110206084        7.7639715778
  C         6.8364011152        0.5832302944       17.8541471336
  H         7.6080197230        0.6053437949       18.6332412365
  C        17.7237894991       11.4191804818       17.8817878544
  H        18.4894295609       11.4068326381       18.6669195343
  C        17.6294096705        0.5875464554        7.0474109968
  H        18.3955053539        0.6050676414        7.8318305124
  C        15.6000891156       15.7895748551       11.4206285642
  H        14.8135715636       15.0256005572       11.4341755108
  C        15.5429584694        4.8639781041        0.5236008627
  H        14.7687387013        4.0871084473        0.5118160474
  C         4.7711700719       15.7366810687        0.5626847891
  H         3.9959073479       14.9609648794        0.5534797625
  C         4.6487546338        4.8781172413       11.3633102397
  H         3.8799947557        4.0961153364       11.3737953991
  C         6.9412664621       15.7158043021       11.3896338149
  H         7.7199242495       14.9436208369       11.3867522633
  C         6.7265777392        4.8985085676        0.5350758136
  H         7.4939758667        4.1149214566        0.5367735414
  C        17.7172839855       15.7437943659        0.5857150564
  H        18.4922809881       14.9678397839        0.5855970014
  C        17.4796656477        5.0461014681       11.3603206521
  H        18.2628088616        4.2773931139       11.3669405762
  C        15.3337336817        7.1135743661       11.3475832521
  H        14.5472342124        7.8713949511       11.3388989315
  C        15.6016275668       17.8587507058        0.5865984072
  H        14.8253965739       18.6336324356        0.5873899360
  C         4.6344339938        7.0373281943        0.5306296935
  H         3.8686711952        7.8223956380        0.5283375394
  C         4.8153820030       17.8194480411       11.3959208445
  H         4.0358327018       18.5910420570       11.3990748507
  C         6.7418068647        7.0143410651       11.3398639339
  H         7.5101134632        7.7969455452       11.3290189155
  C         6.8824478129       17.8547008994        0.5833953410
  H         7.6562021405       18.6319067374        0.5922787982
  C        17.6551700140        6.9862531286        0.5489653891
  H        18.4285512762        7.7639757766        0.5608724687
  C        17.7296167201       17.8889899215       11.3921387596
  H        18.5094438927       18.6600889466       11.3788557737
 Xe        14.5305603666       10.7035060878       11.4435587342
