     409
 i =      56, E =    -5133.8535668049
  N         2.9364052954        5.2997627991       15.9509314389
  C         1.6103171974        5.5374378874       16.2167318124
  N        13.7465271240        5.0750910186        5.1026212013
  C        12.4269267122        5.3299724352        5.3848994258
  N        19.5351702522       17.5315026590       15.9764751293
  C        20.8536866970       17.2966028735       16.2718008969
  N         8.7462057986       17.6023996207        5.2527040928
  C        10.0607796880       17.2960957875        5.4997783503
  N        19.6117857178        5.1566091913        6.7306758145
  C        20.9282266704        5.4618849933        6.4904400050
  N         8.7798459926        5.2249164536       17.6425993256
  C        10.0957398500        5.4343371748       17.3140187168
  N         2.8623183142       17.6040024896        6.7822898889
  C         1.5489798084       17.3106877982        6.5100846039
  N        13.6964957056       17.5812158906       17.5907403353
  C        12.3720538491       17.3280976085       17.3349712242
  N        15.9223416703        2.9574290542        5.1274873484
  C        16.1785996920        1.6410984035        5.4133601802
  N        15.7896277138       13.8273032295       16.0116382236
  C        16.0662415537       12.5072991393       16.2701004843
  N        15.8737246168       19.7031635178       17.5559908192
  C        16.1467502259       21.0171774932       17.2727647571
  N        15.8527799813        8.8124620075        6.6716014191
  C        16.1244819510       10.1335795893        6.4179996595
  N         6.5765008936       19.7658257832        5.2311078170
  C         6.3028829391       21.0839717622        5.4945488984
  N         6.5276741598        9.0018200341       16.0794688967
  C         6.2431193669       10.3199207862       16.3367334208
  N         6.6126637023        3.1332487358       17.5549282497
  C         6.3322285368        1.8187678416       17.2877479700
  N         6.5316734659       13.8958542348        6.8177395212
  C         6.2625742352       12.5813582572        6.5270246137
  N         5.0470981996       16.0646460734        3.0829319041
  C         5.3156856435       16.3454347821        1.7686552182
  N         5.1890313396        5.4101820374       13.8617391576
  C         5.4679559567        5.6755109744       12.5447623954
  N        17.4141358411       15.9723506340       19.7059605296
  C        17.1518675742       16.2379161933       21.0268748763
  N        17.4476465166        5.1068169831        8.8507173808
  C        17.1845584192        5.3919419568       10.1665568100
  N         4.9973242408        6.7821136373       19.7293456787
  C         5.2593054260        6.4992053037       21.0447673493
  N         5.0171592244       17.6342972900        8.9458123867
  C         5.2924823629       17.3786376907       10.2655469148
  N        17.4662834080        6.6787241975        2.9855303736
  C        17.1952913713        6.4192769935        1.6660091335
  N        17.3631347474       17.5217796393       13.8428729623
  C        17.0914534782       17.2421680494       12.5285706755
  N         5.0619966624        3.0995590244        6.7944318362
  C         5.3077443429        1.7754126954        6.5208969921
  N         4.9819912259       13.9608327500       17.6416100283
  C         5.2356809355       12.6418329264       17.3628227992
  N        17.4070455564       19.6434639984        6.7480981946
  C        17.1570467239       20.9610438897        6.4609245911
  N        17.4031680042        8.8695432824       17.5078009214
  C        17.1125737216       10.1851143571       17.2514110401
  N         5.0222024569       19.8182354309       16.0427427552
  C         5.3057434182       21.1374590481       16.2940672167
  N         5.0411531416        8.9564776784        5.1324620944
  C         5.2858007047       10.2707868017        5.4431109759
  N        17.4559314469        3.0035816013       15.9663042385
  C        17.1750687635        1.6873622672       16.2370755194
  N        17.4274591396       13.7863159913        5.1822075330
  C        17.1540292124       12.4657154226        5.4370290155
  N         2.8575192108       16.1141376944       17.6294881007
  C         1.5397144738       16.3518730925       17.3348975877
  N        13.6894821340       15.9141787848        6.7185439162
  C        12.3734099651       16.2111181202        6.4656113586
  N        19.5754582525       15.9583301523        5.2011129153
  C        20.8880427506       16.2497158689        5.4779665671
  N         8.7067956489       16.0825288375       16.0884293238
  C        10.0289610665       16.3378691853       16.3482754891
  N        19.5853215034        6.7415926406       17.5087490790
  C        20.9068447288        6.4960002766       17.2381980213
  N         8.7980554191        6.6472618582        6.6820991492
  C        10.1119487360        6.3467709267        6.4236401131
  N         2.9143909452        6.8105783077        5.2406559153
  C         1.6012792750        6.5211019665        5.5075235956
  N        13.7264748395        6.6216889944       15.9135200414
  C        12.4118531944        6.3560709759       16.2026525282
  N        15.9031747401        5.1535368204       19.6664367440
  C        16.1789754608        5.4166260572       20.9827668019
  N        15.8180781559       15.9317024696        8.8928046963
  C        16.0782298422       16.2117686079       10.2116899933
  N        15.8671223878       17.5006333753        3.0345621811
  C        16.1421728184       17.2413685043        1.7160353326
  N        15.9134375181        6.7138155488       13.7988219721
  C        16.1821835265        6.4354914875       12.4821950044
  N         6.5446005221        5.1882222879        3.0281429006
  C         6.2696811546        5.4642869104        1.7151262922
  N         6.5709769141       16.1184316328       13.9156888692
  C         6.3079589700       16.3838755686       12.5955669249
  N         6.5794604676       17.6658762068       19.7750173336
  C         6.3216087866       17.3829207019       21.0930532674
  N         6.7704964240        6.9011917513        8.8867785340
  C         6.4941595813        6.6559730772       10.2089937326
  N        19.5462291230       17.5012036962        6.7690196067
  C        20.8683972151       17.2577345522        6.5011457864
  N         8.7338557274       17.6571983579       17.6239603844
  C        10.0482130417       17.3646555424       17.3527834464
  N         2.9333593270        5.2852345425        6.8253977227
  C         1.6108450107        5.5217754623        6.5393718927
  N        13.7384760264        5.1359531078       17.5353262261
  C        12.4180556346        5.3909951969       17.2643454336
  N         2.8503370817       17.6607902800       16.0645207983
  C         1.5339995597       17.3623600548       16.3142393142
  N        13.7008965754       17.4973109331        5.1903400674
  C        12.3815831673       17.2455621154        5.4692384529
  N        19.6126801019        5.1887615799       15.9502782382
  C        20.9266368937        5.4855362452       16.2175462048
  N         8.7780261896        5.1382132847        5.0858861359
  C        10.1006966003        5.3618628272        5.3790982194
  N         6.5691397665       19.8222219054       17.6085513319
  C         6.3123486275       21.1388833971       17.3190578650
  N         6.5759539830        8.9374879473        6.7034258772
  C         6.2869363601       10.2591796271        6.4721114901
  N         6.5757934316        3.0752995496        5.1975627433
  C         6.3010396078        1.7634408892        5.4831243004
  N         6.5090452331       13.9568470361       16.0588733167
  C         6.2301377626       12.6412112275       16.3286525464
  N        15.9010436236        3.0144426246       17.5234277843
  C        16.1624229200        1.6961414559       17.2556383045
  N        15.8591171840       13.7716032112        6.7261214685
  C        16.1297508573       12.4559642869        6.4442176304
  N        15.8625416587       19.6447052312        5.1822308069
  C        16.1479435020       20.9614270589        5.4389520073
  N        15.8199940989        8.8610014153       15.9788208366
  C        16.0786981258       10.1820098026       16.2538324037
  N        17.4415232171        6.7246302674       19.6671315095
  C        17.1838709882        6.4425058726       20.9849694414
  N        17.3777301629       17.4833549354        8.8940169061
  C        17.0986282853       17.2225858592       10.2102014075
  N         4.9975102454        6.7520729964        3.0403343806
  C         5.2587967270        6.4841537777        1.7219504845
  N         5.0069759113       17.6641414103       13.9040781690
  C         5.2866954316       17.3936993365       12.5880764804
  N        17.4245670925       15.9460497778        3.0279135124
  C        17.1562978785       16.2239861640        1.7103833474
  N        17.4584114403        5.1467472740       13.8070373143
  C        17.1901638637        5.4119648532       12.4880468122
  N         5.0156832386       16.1180636247       19.7749736329
  C         5.3004858598       16.3726625830       21.0911046381
  N         5.2033745643        5.3494978066        8.9088923969
  C         5.4754449842        5.6428934324       10.2219998332
  N        17.4089914870       19.6856910661       15.9812468888
  C        17.1519838965       21.0061796599       16.2470630680
  N        17.4273035600        8.8288868538        5.1356400122
  C        17.1513578667       10.1437662058        5.4136405506
  N         5.0933955018        3.1425529860       15.9644752477
  C         5.3362042429        1.8213303450       16.2528463938
  N         5.0104884383       13.9131825345        5.2287257610
  C         5.2695736250       12.5927457102        5.4911701304
  N        17.4720832319        2.9607811636        6.6903357556
  C        17.1894881399        1.6422308491        6.4339275810
  N        17.3752249553       13.8229986105       17.5374675566
  C        17.1011057682       12.5061506057       17.2663318847
  N         5.0245393071       19.7727292450        6.7910842195
  C         5.2947510409       21.0905363324        6.5176800926
  N         4.9995473151        8.9985684313       17.6579167663
  C         5.2454155949       10.3178574667       17.3692148230
  N        19.6043366945        6.7041597852        5.1660845435
  C        20.9220909887        6.4695535797        5.4667751415
  N         8.7735024944        6.7049332617       16.0200571918
  C        10.0914014451        6.3999094372       16.2520326051
  N         2.8959966091        6.8254866612       17.5353088693
  C         1.5864342679        6.5374287221       17.2477455288
  N        13.7472362374        6.5882254969        6.6998342951
  C        12.4315441078        6.3136639850        6.4295089170
  N         2.8882746775       16.0586238056        5.2164828799
  C         1.5675451584       16.3019082033        5.4880149473
  N        13.6612485696       16.0158384476       16.0436698732
  C        12.3499262280       16.3053457128       16.3264945867
  N        19.5448275693       15.9803813772       17.5374079455
  C        20.8602025741       16.2843090901       17.2909792682
  N         8.7294744354       16.0151757165        6.7755893973
  C        10.0508237599       16.2596937071        6.4945757107
  N         6.6108146831       17.6109497939        3.0934225181
  C         6.3367436376       17.3551887723        1.7740344661
  N         6.7380269567        6.9821877229       13.8607345402
  C         6.4796544743        6.6962792831       12.5419679844
  N         6.5571677663        5.2293378138       19.7250377177
  C         6.2750055925        5.4839012131       21.0406135006
  N         6.5809677716       16.0864247875        8.9557424657
  C         6.3136284643       16.3680964955       10.2727082625
  N        15.8749108492       17.5443084235       19.7195586036
  C        16.1447833275       17.2621525747       21.0348573421
  N        15.9047912821        6.6736652846        8.8407212318
  C        16.1771488246        6.4156272150       10.1603710012
  N        15.9251403463        5.1085751825        2.9758909212
  C        16.1894877890        5.3939019032        1.6610302993
  N        15.7919959338       15.9815929412       13.8553990388
  C        16.0666140161       16.2358535255       12.5347218373
 Zn        14.4913813238       14.7102124007       14.7375738211
 Br        13.1582478692       13.4017193732       13.4318792544
 Zn        14.6339975142        3.7985487385        3.8172100543
 Br        13.3217829238        2.4867412945        2.4980076298
 Zn         3.7436480078       14.7726406459        3.9198020194
 Br         2.4397283380       13.4548361359        2.5993257744
 Zn         3.8680031225        4.0644937861       14.6576561888
 Br         2.5786649121        2.7714256236       13.2975935072
 Zn         7.9778253580        8.2037840635       14.9309558057
 Br         9.6233858140        9.7957426683       14.8423279223
 Zn         7.8960974581       18.9015093442        3.9618156442
 Br         9.2285821215       20.2010221811        2.6517144533
 Zn        18.7387502106        7.9803864267        3.8538282494
 Br        20.0455690202        9.3123212985        2.5497086610
 Zn        18.6723004477       18.8137159770       14.6742677180
 Br        19.9933827746       20.1148261640       13.3535215960
 Zn         7.8414039319       14.7664441320        8.0886041087
 Br         9.1736786641       13.4984279564        9.4265002690
 Zn         7.8840726503        3.9478358167       18.9006884746
 Br         9.1668292199        2.6038715588       20.2133789069
 Zn        18.6840060278       14.6726631562       18.8218108400
 Br        20.0072084841       13.3563210030       20.1257869631
 Zn        18.7557793059        3.8312132445        7.9934311971
 Br        20.0764247295        2.5186029451        9.3049155289
 Zn        14.5857341818        7.9228678702        7.9634356342
 Br        13.2894102005        9.2220804891        9.3133597174
 Zn        14.5966214630       18.8601778553       18.8746295166
 Br        13.3090564315       20.1891473504       20.2012959860
 Zn         3.6990987620        8.0918712298       18.8930831760
 Br         2.3550843503        9.3610801530       20.2193812050
 Zn         3.7195682789       18.9114201597        8.0682162344
 Br         2.4008616190       20.2375976882        9.3691663587
 Zn        14.5512364161       14.6188396342        8.0125079603
 Br        13.2422173237       13.2955936535        9.3267217031
 Zn        14.6081390194        3.8573004824       18.8252132135
 Br        13.2884452500        2.5509723869       20.1419765195
 Zn         3.7085102625       14.8293862214       18.9356712680
 Br         2.3938895380       13.5160822121       20.2512198237
 Zn         3.8513585337        4.0347612509        8.1144220531
 Br         2.5565841379        2.7482544036        9.4743007886
 Zn         8.0188258189        8.1089929212        7.8332313790
 Br         9.6464001226        9.6964302234        8.0651531105
 Zn         7.8657074227       18.9607014374       18.9031034159
 Br         9.1948965693       20.2607758920       20.2176925452
 Zn        18.7128090956        8.0270490416       18.7965468525
 Br        20.0094457213        9.3583181243       20.1119131622
 Zn        18.6733086921       18.7811248650        8.0585580527
 Br        19.9852799101       20.0977842528        9.3748971376
 Zn        14.5767632097        7.9602501111       14.6616965821
 Br        13.2793150406        9.2645170797       13.3213662125
 Zn        14.5639140851       18.7819396906        3.8956783009
 Br        13.2573596428       20.1071742159        2.5843412775
 Zn         3.7303786702        8.0733454464        3.8901225486
 Br         2.3931774075        9.3706494294        2.5833922204
 Zn         3.7143879181       18.9500034214       14.7687045522
 Br         2.4049056888       20.2763659030       13.4581605369
 Zn         7.8312648471       14.8135862569       14.7939551252
 Br         9.1474580784       13.5210448073       13.4633836415
 Zn         7.8448691697        3.8735473554        3.8388362314
 Br         9.0950798816        2.5169338827        2.5070020602
 Zn        18.7231476219       14.6630596802        3.8986210986
 Br        20.0495907182       13.3643048394        2.5800732283
 Zn        18.7598310974        3.8666149979       14.6779373173
 Br        20.0874986343        2.5469511942       13.3817594990
 Zn         5.8487414985        6.0743484063       16.8276793368
 Zn        16.6086387186       16.7621576785       16.7761545732
 Zn        16.6743018357        5.8856122625        5.9034952527
 Zn         5.8008747274       16.8347180622        6.0158040121
 Zn         5.8552306025        6.0153214313        5.9387267429
 Zn        16.6246745057       16.7095004283        5.9604014389
 Zn         5.7840979457       16.8899803947       16.8510241908
 Zn        16.6634779154        5.9370324614       16.7289973503
  N         3.6628498618        6.0750946702       16.7501803997
  N        14.4935993924        5.8383140280        5.8963239193
  N        18.7936070872       16.7387227078       16.7442264075
  N         7.9914767043       16.8253760393        6.0234035687
  N        18.8619098118        5.9112097779        5.9323873133
  N         8.0312762194        5.9953381127       16.8592904060
  N         3.6219608825       16.8430164123        5.9988195996
  N        14.4252517411       16.7890378414       16.8101541808
  N        16.7030977973        3.7054305252        5.9012091648
  N        16.5818627196       14.5718953715       16.7775590346
  N        16.6375368239       18.9473203359       16.7731572243
  N        16.6426756515        8.0737419164        5.8980142703
  N         5.8015818588       19.0227004400        6.0148347104
  N         5.7778919002        8.2542970174       16.8783175690
  N         5.8627949706        3.8849227294       16.7561680054
  N         5.7741712427       14.6514348213        6.0280995573
  N         5.8298228066       16.8315919679        3.8352863148
  N         5.9552346905        6.1972547264       14.6089508113
  N        16.6421404905       16.7624868016       18.9658891791
  N        16.6733617010        5.8831619391        8.0985447746
  N         5.7842217171        6.0142032338       18.9813305084
  N         5.7963114502       16.8530071675        8.2044478204
  N        16.6971261846        5.8873829359        3.7272241629
  N        16.5773182065       16.7584250096       14.5957831842
  N         5.8276602713        3.8337432028        5.9916306358
  N         5.7528770837       14.7060107335       16.8544430639
  N        16.6257741256       18.8969886280        5.9730552312
  N        16.6219750873        8.1191271165       16.7377753922
  N         5.7883669907       19.0741180294       16.8347751466
  N         5.8240215707        8.2010796321        5.8966324159
  N        16.6828270968        3.7555879295       16.7448154924
  N        16.6432475731       14.5253911258        5.9609767922
  N         3.6004390825       16.9019351509       16.8586920895
  N        14.4418382397       16.6944928319        5.9481224891
  N        18.8140053583       16.7183275714        5.9833159479
  N         7.9736336520       16.8797927860       16.8580402000
  N        18.8523466734        5.9520832853       16.7307384992
  N         8.0420287046        5.9173541992        5.8729545782
  N         3.6705107258        6.0604392083        6.0354216602
  N        14.4794866620        5.8833971913       16.7225519902
  N        16.6670800499        5.9438572107       18.9193929216
  N        16.6038575030       16.7028283575        8.1466156324
  N        16.6437903182       16.7184857160        3.7777413317
  N        16.6846915894        5.9331067409       14.5491441154
  N         5.7761427543        5.9689378385        3.7805793681
  N         5.7845314604       16.8917089556       14.6570885206
  N         5.7900752089       16.8989165617       19.0286669296
  N         5.9848950714        6.1101105314        8.1504278497
  C        11.1768964564       15.7669465133       15.7935620530
  H        11.1578677031       14.9854446395       15.0243974937
  C        11.2580118394        4.8078552107        4.8211369586
  H        11.2497627810        4.0545243500        4.0245646688
  C         0.4219531723       15.7296155690        4.9297330639
  H         0.4453009107       14.9596588559        4.1490608791
  C         0.4603484371        4.9686356030       15.6614010911
  H         0.4771573419        4.2007811062       14.8788425197
  C        11.2504936709        6.8871178591       15.6434277520
  H        11.2552931622        7.6371421672       14.8465758146
  C        11.2262895879       17.8302815606        4.9452378889
  H        11.2337926389       18.6200827043        4.1843217301
  C         0.4388855781        7.0408229582        4.9334942318
  H         0.4362595087        7.8081686249        4.1496568517
  C         0.3688302976       17.8779295663       15.7421408167
  H         0.3604592664       18.6517482373       14.9650431104
  C        11.2072534195       15.6739720190        7.0172351122
  H        11.2004827629       14.8839656701        7.7778084902
  C        11.2592073695        4.8832834570       17.8585465075
  H        11.2630786370        4.1440335086       18.6681694099
  C         0.3851968296       15.7714530404       17.8656651953
  H         0.3941986165       14.9997132420       18.6449189326
  C         0.4519711538        4.9509279302        7.0729130763
  H         0.4540938409        4.1839794768        7.8566722848
  C        11.2792280160        6.8516207221        6.9988737869
  H        11.2937541860        7.6153096005        7.7830464573
  C        11.2228235633       17.8998694745       17.8890435741
  H        11.2420581883       18.6811961001       18.6584108188
  C         0.4145290828        7.0618273720       17.7970453055
  H         0.3970279972        7.8297497474       18.5802202314
  C         0.3748033614       17.8301345922        7.0592002313
  H         0.3525027077       18.6015194127        7.8384656691
  C        15.5118697521       11.3453154229       15.7242578840
  H        14.7230026072       11.3475858001       14.9624779345
  C        15.6164409416        0.4822649816        4.8733063704
  H        14.8439619695        0.4835755263        4.0947064177
  C         4.7340455811       11.4392150273        4.9119902821
  H         3.9713609130       11.4514416435        4.1244100865
  C         4.7785392878        0.6570602836       15.7170718424
  H         4.0115344110        0.6509689137       14.9334251359
  C        15.5722855964       11.2898914166        6.9752567486
  H        14.7905988074       11.2835866637        7.7444827138
  C        15.6067289700        0.5441202779       17.8163965305
  H        14.8345726345        0.5556587950       18.5953422534
  C         4.6975053307       11.4790787232       17.9221552329
  H         3.9358141423       11.4783334404       18.7108028449
  C         4.7579094676        0.6155539778        7.0748593835
  H         3.9916210131        0.6167454527        7.8592477731
  C         6.7673416972       11.4832172486       15.7685158634
  H         7.5429559701       11.4911094360       14.9960917827
  C         6.8414166782        0.6008174280        4.9294953248
  H         7.6041850523        0.5988463993        4.1412205449
  C        17.7069676719       11.3097073198        4.8807337017
  H        18.4893214494       11.3161162617        4.1121274822
  C        17.7086859759        0.5193970416       15.6875640746
  H        18.4784562866        0.5078350430       14.9065861041
  C         6.8068434506       11.4143419758        7.0628222210
  H         7.5831471558       11.4073891419        7.8348369602
  C         6.8638156800        0.6611043774       17.8607248245
  H         7.6278836656        0.6673681228       18.6477277858
  C        17.6650664102       11.3451324261       17.7989386940
  H        18.4543036455       11.3433310956       18.5605317312
  C        17.7199040328        0.4807373664        7.0003331684
  H        18.4901540293        0.4789348487        7.7809715499
  C        15.5181878406       15.6787821982       11.3759608573
  H        14.7369485941       14.9092350439       11.3803678746
  C        15.6395788100        4.8499783484        0.4990628492
  H        14.8703847884        4.0682251437        0.4943784557
  C         4.7557847965       15.8110130681        0.6071990350
  H         3.9761819741       15.0395768781        0.6033355410
  C         4.9236864637        5.1117118158       11.3890021934
  H         4.1473921908        4.3356096215       11.3981753726
  C         6.8649844395       15.8314675494       11.4390481701
  H         7.6455042484       15.0610556747       11.4474527197
  C         6.8198800051        4.9196670928        0.5544970842
  H         7.5928946842        4.1414585313        0.5497669059
  C        17.7013518758       15.6793002804        0.5443459103
  H        18.4732067951       14.9001936957        0.5378359618
  C        17.7331286543        4.8486098415       11.3307403698
  H        18.5024446625        4.0670994780       11.3357820661
  C        15.6355865072        6.9806345148       11.3177935808
  H        14.8663368666        7.7623698110       11.3121367337
  C        15.5976795712       17.8048540801        0.5596960164
  H        14.8267379771       18.5849149852        0.5662745606
  C         4.7077907434        7.0423173288        0.5667947692
  H         3.9348133830        7.8204643598        0.5717754869
  C         4.7392092834       17.9345293966       11.4220095858
  H         3.9605979031       18.7068069555       11.4147126691
  C         7.0321358959        7.2227289677       11.3694647789
  H         7.8055357156        7.9971805042       11.3591654685
  C         6.8832818735       17.9151730687        0.6163169036
  H         7.6633402681       18.6860764323        0.6211067550
  C        17.7339736448        6.9867534442        0.5082528173
  H        18.5005070480        7.7711338970        0.5125321340
  C        17.6489864831       17.7783716640       11.3666072548
  H        18.4309642751       18.5476138027       11.3623615395
 Xe        10.1914978614       10.5146684432       11.4393388278
