     409
 i =      56, E =    -5133.8782950023
  N         2.7334991740        5.2377531300       16.0346255924
  C         1.4135135688        5.4985117169       16.2984152705
  N        13.5193737696        5.1892855863        5.2018433590
  C        12.2031929844        5.4675813990        5.4732765372
  N        19.4642929562       17.5639851397       16.0155571023
  C        20.7826831799       17.3086379614       16.2952898352
  N         8.6278315526       17.6056104504        5.2239683628
  C         9.9445646522       17.3210544763        5.4854411233
  N        19.3898550187        5.1854191339        6.7541391206
  C        20.7063435122        5.4744058921        6.4965510369
  N         8.5889167864        5.2315504523       17.5937292994
  C         9.9069323773        5.4898503946       17.3150565335
  N         2.7544014621       17.6050875996        6.7697827635
  C         1.4384222135       17.3285281042        6.4960153427
  N        13.6103150532       17.5575799258       17.5790953643
  C        12.2907964084       17.2989003886       17.3095227140
  N        15.6711336412        3.0223765153        5.2011858204
  C        15.9511255257        1.7056601973        5.4695111616
  N        15.7492150565       13.8501965830       16.0133372859
  C        16.0112361235       12.5313720943       16.2849425004
  N        15.7549685043       19.7030231473       17.5734707911
  C        16.0078667041       21.0223374905       17.2960936422
  N        15.6902751611        8.8937439185        6.7525614413
  C        15.9720792463       10.2096960397        6.4848217844
  N         6.4653279712       19.7711786087        5.2280674707
  C         6.1772983852       21.0869898747        5.4912229281
  N         6.4461651968        8.9403135104       16.0322547208
  C         6.1862216804       10.2598780117       16.3032093315
  N         6.4360277349        3.0866995193       17.6064616185
  C         6.1789247537        1.7671401283       17.3338397825
  N         6.4601799243       13.8983706255        6.7693567869
  C         6.1828513951       12.5817710937        6.5011515938
  N         4.9244426957       16.0676489778        3.0611860220
  C         5.2003112903       16.3377624447        1.7450587112
  N         4.8796694082        5.2297634576       13.8862957722
  C         5.1438316622        5.5022649132       12.5678034028
  N        17.3185009999       15.9878992191       19.7269301460
  C        17.0437182075       16.2539499677       21.0450353390
  N        17.2372640399        5.1834188551        8.9039974927
  C        16.9725593292        5.4546801699       10.2221141930
  N         4.8694548964        6.8052334087       19.7424398604
  C         5.1324337413        6.5348372548       21.0618731304
  N         4.9144786279       17.6060113559        8.9293661360
  C         5.1912966244       17.3398431715       10.2465120230
  N        17.2264832974        6.7254312200        3.0406298959
  C        16.9586658736        6.4547028971        1.7231712834
  N        17.3119418780       17.5533717678       13.8606797842
  C        17.0391344365       17.2828600931       12.5436657673
  N         4.8514746502        3.0776954084        6.7682441062
  C         5.1318840165        1.7611771616        6.5000625747
  N         4.9313802140       13.9066066332       17.5931195105
  C         5.1910236402       12.5876826899       17.3209624736
  N        17.2738501303       19.7157798527        6.7488099754
  C        16.9904366273       21.0312167353        6.4813656198
  N        17.2628771513        8.8848093194       17.5797083464
  C        17.0060732571       10.2041171667       17.3052276540
  N         4.9341663095       19.7592404859       16.0387822097
  C         5.1909567432       21.0783780747       16.3133516608
  N         4.8709089238        8.9489854161        5.2244379805
  C         5.1509185836       10.2653267839        5.4909493952
  N        17.2574178727        3.0306355288       16.0044302393
  C        16.9961732029        1.7110836177       16.2742185872
  N        17.2937809726       13.8414048110        5.2068484093
  C        17.0113380012       12.5248407515        5.4730394358
  N         2.7853335000       16.0598730969       17.6014157274
  C         1.4670147740       16.3189625432       17.3259140270
  N        13.5789123675       16.0021659733        6.7553866874
  C        12.2619635046       16.2816899652        6.4899354828
  N        19.4504290098       16.0102851625        5.2060938247
  C        20.7658236884       16.2929412134        5.4758166115
  N         8.6421313165       16.0440637561       16.0295495529
  C         9.9615634218       16.3049568775       16.2975603698
  N        19.4018048912        6.7369822478       17.5788181689
  C        20.7217225770        6.4843376099       17.3071754998
  N         8.5734967789        6.7754259289        6.7659374636
  C         9.8891506724        6.4980243495        6.4933390489
  N         2.6998273502        6.8048268107        5.2330066560
  C         1.3829577021        6.5225941426        5.4974543896
  N        13.5486798956        6.7487979919       16.0111933062
  C        12.2302397932        6.4870295897       16.2861976946
  N        15.6872932028        5.1690969315       19.7194503299
  C        15.9502929603        5.4392805058       21.0389716551
  N        15.7367621636       16.0037266657        8.9085860455
  C        16.0133573235       16.2702284831       10.2254563542
  N        15.7423970823       17.5390160212        3.0394985399
  C        16.0179570451       17.2680565741        1.7234273517
  N        15.7034097583        6.7452657071       13.8635730525
  C        15.9683498555        6.4733922336       12.5454984977
  N         6.3991921329        5.2443772063        3.0638256916
  C         6.1338525138        5.5172258796        1.7465375260
  N         6.4871595193       16.0539556900       13.8816418699
  C         6.2147703815       16.3252479747       12.5648362267
  N         6.5023182574       17.6136390268       19.7478252637
  C         6.2274562228       17.3478432808       21.0660019845
  N         6.4244152766        6.7860662838        8.9260722873
  C         6.1549770671        6.5177925066       10.2442398804
  N        19.4366140169       17.5711930664        6.7570650341
  C        20.7567600136       17.3103789277        6.4898227254
  N         8.6537871288       17.6003563632       17.5852289107
  C         9.9696861535       17.3203750833       17.3136426679
  N         2.7062196802        5.2455153240        6.7857424976
  C         1.3875104137        5.5056009145        6.5120018494
  N        13.5443108990        5.1883079544       17.5620218408
  C        12.2275117691        5.4696537699       17.3001765237
  N         2.7800544911       17.6120660743       16.0441499201
  C         1.4633304595       17.3333169668       16.3093498812
  N        13.5837557245       17.5516725489        5.1935486038
  C        12.2655500509       17.2949426861        5.4719080593
  N        19.4176489308        5.1871421273       16.0176288712
  C        20.7327090856        5.4709818068       16.2893311232
  N         8.5617952295        5.2240824710        5.2067577949
  C         9.8815291462        5.4843151571        5.4759658555
  N         6.4952530875       19.7684772529       17.5898939609
  C         6.2092691915       21.0851205435       17.3266033367
  N         6.4308924906        8.9410858874        6.7759774671
  C         6.1684036096       10.2603022431        6.5048659042
  N         6.4027566967        3.0868116008        5.2082065096
  C         6.1456426828        1.7679996385        5.4825520782
  N         6.4843394351       13.8977792337       16.0343000026
  C         6.2053594588       12.5815323304       16.3039886136
  N        15.6968799206        3.0203347007       17.5561671232
  C        15.9790044747        1.7040461421       17.2886183008
  N        15.7342873385       13.8499100595        6.7599550057
  C        15.9946446741       12.5309304140        6.4879814441
  N        15.7244819821       19.7037710606        5.1875166476
  C        15.9774916060       21.0236701136        5.4632233225
  N        15.7112228806        8.8944103194       16.0201540138
  C        15.9917926851       10.2102941400       16.2883660346
  N        17.2451194561        6.7223432280       19.7271350258
  C        16.9679238112        6.4529567008       21.0430462691
  N        17.2909713580       17.5599980238        8.9047819476
  C        17.0291063081       17.2855869716       10.2229296852
  N         4.8452776523        6.8014670347        3.0630712176
  C         5.1191591224        6.5337554489        1.7446910873
  N         4.9323684327       17.6102717587       13.8861710301
  C         5.1998787854       17.3416287581       12.5676895813
  N        17.2999094588       15.9847954933        3.0465851683
  C        17.0339746158       16.2525993567        1.7272350046
  N        17.2583134109        5.1881684952       13.8597877645
  C        16.9828073858        5.4564151472       12.5428551943
  N         4.9430658826       16.0611103460       19.7468931405
  C         5.2094903301       16.3343523060       21.0643463285
  N         4.8653194911        5.2334408287        8.9290454910
  C         5.1372164426        5.5041142508       10.2463303938
  N        17.3052036807       19.7131976362       16.0121227919
  C        17.0210441287       21.0293022250       16.2779754979
  N        17.2405445016        8.8839093521        5.1918144928
  C        16.9852765618       10.2032018674        5.4668419809
  N         4.8809305841        3.0759174937       16.0503336261
  C         5.1629104095        1.7598973102       16.3185723673
  N         4.9087139465       13.9049462543        5.2095020723
  C         5.1686973936       12.5863291565        5.4840109942
  N        17.2294552226        3.0311119055        6.7554323273
  C        16.9674516942        1.7121806426        6.4848159118
  N        17.3108090421       13.8424740234       17.5643538551
  C        17.0293572235       12.5257861565       17.2984525374
  N         4.9056827677       19.7595920234        6.7798416558
  C         5.1602225835       21.0794188245        6.5055810179
  N         4.8873477389        8.9506457966       17.5856192732
  C         5.1696098048       10.2665804940       17.3180615152
  N        19.3830966852        6.7375119851        5.1955039950
  C        20.7016802389        6.4887176426        5.4796325673
  N         8.5920107829        6.7810619565       16.0325542111
  C         9.9091060561        6.5030028031       16.2969987352
  N         2.7178665971        6.7988959562       17.5846462689
  C         1.4025860142        6.5162272119       17.3119604228
  N        13.5296621435        6.7465300826        6.7574533826
  C        12.2103169806        6.4834281053        6.4890825910
  N         2.7659979436       16.0560574367        5.2074960787
  C         1.4467703971       16.3157063599        5.4775992464
  N        13.5980705691       16.0071539579       16.0191142535
  C        12.2824573085       16.2856667614       16.2916739965
  N        19.4697934774       16.0060319003       17.5696365080
  C        20.7864121446       16.2921986246       17.3104251264
  N         8.6216032713       16.0440044042        6.7735415100
  C         9.9404820285       16.3030070859        6.4988038281
  N         6.4815102209       17.6223630121        3.0682634655
  C         6.2173983181       17.3520689518        1.7487579155
  N         6.4355425321        6.7846835689       13.8824275794
  C         6.1604370659        6.5169184351       12.5654110139
  N         6.4273645497        5.2502256361       19.7499614954
  C         6.1485207066        5.5193035791       21.0660510026
  N         6.4701843656       16.0508603521        8.9259576494
  C         6.2066050345       16.3238546953       10.2440748576
  N        15.7654171637       17.5450024273       19.7258536775
  C        16.0292851934       17.2706537547       21.0432405781
  N        15.6852197294        6.7420329908        8.9075790313
  C        15.9590804453        6.4723838242       10.2245935136
  N        15.6672095434        5.1740545947        3.0391237401
  C        15.9404382035        5.4417136940        1.7211270528
  N        15.7525476806       16.0009391765       13.8640164811
  C        16.0214878492       16.2690931747       12.5460278755
 Zn        14.4524725749       14.7145328158       14.7234027070
 Br        13.1319977444       13.4044036499       13.4110952430
 Zn        14.3768028682        3.8884444167        3.9086349879
 Br        13.0518377827        2.5752241653        2.6025832914
 Zn         3.6283473127       14.7714910953        3.9080466733
 Br         2.3109783343       13.4621263792        2.5920653628
 Zn         3.5917777362        3.9379501830       14.7546899870
 Br         2.2765209775        2.6232069375       13.4397946113
 Zn         7.7340718443        8.0710741488       14.7378723682
 Br         9.0523683249        9.3811438611       13.4220308309
 Zn         7.7708391084       18.9142377185        3.9443636447
 Br         9.0886507200       20.2255907480        2.6300014628
 Zn        18.5198608844        8.0158991146        3.8946139349
 Br        19.8383767691        9.3255392966        2.5778246604
 Zn        18.6017091723       18.8520395179       14.7194169732
 Br        19.9155712688       20.1644855899       13.4027987609
 Zn         7.7535728465       14.7552404135        8.0626725764
 Br         9.0645493090       13.4319822774        9.3734659619
 Zn         7.7259177428        3.9534785195       18.8953687218
 Br         9.0350107046        2.6388530524       20.2150534319
 Zn        18.6103092912       14.7035976903       18.8546556883
 Br        19.9237426239       13.3815831625       20.1635459294
 Zn        18.5275598527        3.8920233573        8.0449696622
 Br        19.8418305638        2.5734487136        9.3557799975
 Zn        14.3956958216        8.0396895368        8.0496663778
 Br        13.0901812918        9.3605200178        9.3657763320
 Zn        14.4757115333       18.8389389325       18.8755555188
 Br        13.1662794546       20.1582739856       20.1913832987
 Zn         3.5789727559        8.0997614797       18.8735572167
 Br         2.2685663774        9.4193612179       20.1860623917
 Zn         3.6160852398       18.8902675065        8.0679291200
 Br         2.3043694461       20.2056062864        9.3860486145
 Zn        14.4419403544       14.7135467769        8.0523798573
 Br        13.1229010488       13.4040234219        9.3674348514
 Zn        14.3969338716        3.8830180871       18.8432975575
 Br        13.0803917804        2.5688459091       20.1574327900
 Zn         3.6464650880       14.7693927750       18.8893273741
 Br         2.3313552056       13.4608201420       20.2094618502
 Zn         3.5689819140        3.9444799769        8.0672400992
 Br         2.2539556134        2.6333423427        9.3856383567
 Zn         7.7253312409        8.0688094104        8.0620198365
 Br         9.0464749120        9.3787070906        9.3747672709
 Zn         7.7942512656       18.9001196545       18.8768008821
 Br         9.1182896091       20.2122076020       20.1849015236
 Zn        18.5426847411        8.0155160449       18.8797335894
 Br        19.8581397354        9.3262719598       20.1974116794
 Zn        18.5668416763       18.8666313682        8.0455845263
 Br        19.8870332956       20.1785253650        9.3568187238
 Zn        14.4157359403        8.0446819111       14.7231319640
 Br        13.1047067263        9.3639838736       13.4108733439
 Zn        14.4450209326       18.8314508123        3.8916647153
 Br        13.1338020568       20.1462731156        2.5735183135
 Zn         3.5648403211        8.0990968066        3.9406385586
 Br         2.2504414552        9.4177932699        2.6295185064
 Zn         3.6370369828       18.8977529220       14.7505300245
 Br         2.3269723938       20.2166755940       13.4350141531
 Zn         7.7779187269       14.7574864462       14.7364719378
 Br         9.0813031161       13.4333703089       13.4206533393
 Zn         7.6884759753        3.9462193755        3.9097724951
 Br         8.9966294008        2.6263583225        2.5938468043
 Zn        18.5984895210       14.7051753302        3.9208821019
 Br        19.9078453026       13.3819955890        2.6095264113
 Zn        18.5558417862        3.8974403965       14.7193649145
 Br        19.8670336589        2.5821629868       13.4026711393
 Zn         5.6589846782        6.0136021847       16.8200469327
 Zn        16.5425705132       16.7735611942       16.7882536473
 Zn        16.4499242112        5.9541448368        5.9700955158
 Zn         5.6897480180       16.8318124949        5.9986910368
 Zn         5.6305915347        6.0128806283        5.9992190183
 Zn        16.5106289561       16.7734878118        5.9715086939
 Zn         5.7233049069       16.8313854454       16.8183069099
 Zn        16.4791344837        5.9544894634       16.7871499993
  N         3.4725153472        6.0230332544       16.8118038893
  N        14.2707080260        5.9638887065        5.9788656744
  N        18.7207780853       16.7767168173       16.7867791300
  N         7.8779808594       16.8311425414        6.0023475544
  N        18.6395371617        5.9510467163        5.9673642207
  N         7.8435871240        6.0114455266       16.8168369751
  N         3.5069613369       16.8347515328        5.9896100435
  N        14.3513824742       16.7775218173       16.7985485213
  N        16.4459433254        3.7730674352        5.9788054060
  N        16.5349306954       14.5926363357       16.7873287285
  N        16.5381482129       18.9613099665       16.7963133063
  N        16.4588244739        8.1418866983        5.9700435283
  N         5.6939401761       19.0187608728        6.0072503481
  N         5.6611480182        8.1989332993       16.8080081030
  N         5.6525386074        3.8281313229       16.8294854472
  N         5.6890021353       14.6484106415        5.9879531151
  N         5.6997627567       16.8448230458        3.8114862306
  N         5.6605330298        6.0060507839       14.6313191055
  N        16.5447768018       16.7690181503       18.9792452335
  N        16.4589853764        5.9620381672        8.1587586666
  N         5.6523888463        6.0281028262       18.9999248538
  N         5.6887827081       16.8264537226        8.1809481423
  N        16.4455681525        5.9505753680        3.7867052707
  N        16.5330155231       16.7778580514       14.6088364240
  N         5.6216962910        3.8290375680        5.9867280547
  N         5.7128245758       14.6488803012       16.8146196820
  N        16.5071491227       18.9627107117        5.9656998232
  N        16.4811401546        8.1426341658       16.8014836708
  N         5.7219609696       19.0173986850       16.8110200953
  N         5.6461273293        8.1984049944        6.0013543360
  N        16.4720540691        3.7718818354       16.7798444515
  N        16.5192840304       14.5919775153        5.9848672399
  N         3.5301621886       16.8407021315       16.8252274133
  N        14.3280353265       16.7712592841        5.9709327158
  N        18.6968876155       16.7849722562        5.9811819037
  N         7.9016515785       16.8268032347       16.8081308486
  N        18.6629291369        5.9543348127       16.7989013744
  N         7.8204982638        6.0042170235        5.9872377751
  N         3.4494103096        6.0300523197        6.0114475404
  N        14.2932153889        5.9632572859       16.7833481529
  N        16.4700236376        5.9455809715       18.9763833581
  N        16.5099153892       16.7840495848        8.1596300722
  N        16.5187767851       16.7629538389        3.7895611288
  N        16.4834778417        5.9675816613       14.6081489220
  N         5.6205831872        6.0212744462        3.8104161523
  N         5.7110537178       16.8313283715       14.6308191124
  N         5.7248942099       16.8353048797       19.0007873681
  N         5.6441511249        6.0090406715        8.1810243783
  C        11.1162802606       15.7461517065       15.7441471197
  H        11.1074137045       14.9713599657       14.9679122942
  C        11.0378114620        4.9266421614        4.9246663719
  H        11.0308152075        4.1515687045        4.1487901542
  C         0.2919074456       15.7554351565        4.9262983446
  H         0.3017793168       14.9809109215        4.1498717617
  C         0.2613675746        4.9360468813       15.7431369827
  H         0.2753532201        4.1613754866       14.9669265645
  C        11.0709418735        7.0444799386       15.7415323270
  H        11.0727070164        7.8196570598       14.9657077616
  C        11.1079012620       17.8575486759        4.9288280924
  H        11.1126209027       18.6330004254        4.1532577385
  C         0.2186399529        7.0571799496        4.9407278662
  H         0.2122660818        7.8338974845        4.1664467396
  C         0.3006062568       17.8721340908       15.7536689725
  H         0.2966343768       18.6488921943       14.9793453469
  C        11.0983830938       15.7424940320        7.0439402237
  H        11.0941460657       14.9669309074        7.8194017664
  C        11.0659461849        4.9300505954       17.8576358728
  H        11.0639796851        4.1548362659       18.6335081135
  C         0.3093160557       15.7573215903       17.8695081610
  H         0.3139865430       14.9834673648       18.6466343585
  C         0.2304156171        4.9423295054        7.0559303914
  H         0.2364081584        4.1682808128        7.8328749797
  C        11.0540822487        7.0399232473        7.0414158466
  H        11.0604189443        7.8149092757        7.8174966964
  C        11.1361127233       17.8587694148       17.8618597357
  H        11.1454628061       18.6335136319       18.6380499058
  C         0.2338756258        7.0509248327       17.8584635014
  H         0.2197875558        7.8268715766       18.6334584701
  C         0.2720237599       17.8693246295        7.0424163114
  H         0.2627760564       18.6450207381        7.8177133137
  C        15.4517797563       11.3744904088       15.7371055542
  H        14.6758248178       11.3799538691       14.9620454693
  C        15.4138541113        0.5400152158        4.9175588870
  H        14.6374986349        0.5320787251        4.1429374694
  C         4.6097782196       11.4283802788        4.9380150012
  H         3.8338043196       11.4321794988        4.1629385797
  C         4.6256560869        0.5939590994       15.7680573443
  H         3.8480221778        0.5852766758       14.9946802809
  C        15.4342790389       11.3746851765        7.0365620087
  H        14.6591186439       11.3812924455        7.8123912342
  C        15.4429783813        0.5382999283       17.8411426683
  H        14.6669645940        0.5298962650       18.6161737000
  C         4.6311230941       11.4313809798       17.8696867051
  H         3.8562949742       11.4380603151       18.6459033929
  C         4.5955899493        0.5951124201        7.0517351723
  H         3.8195548311        0.5864257957        7.8267204933
  C         6.7454497173       11.4164727720       15.7540012366
  H         7.5206943398       11.4101715466       14.9782941957
  C         6.7098152673        0.6126517703        4.9360420925
  H         7.4838479343        0.6217211969        4.1591311108
  C        17.5475418648       11.3594430231        4.9198927391
  H        18.3219794322       11.3519834549        4.1433536621
  C        17.5564125421        0.5549459532       15.7249526483
  H        18.3299916651        0.5628046924       14.9476297946
  C         6.7253857228       11.4184761189        7.0526488832
  H         7.5011490670       11.4149179408        7.8278991780
  C         6.7434515130        0.6113447006       17.8798853594
  H         7.5187688932        0.6204545203       18.6554835273
  C        17.5679758834       11.3610901221       17.8508978250
  H        18.3440677275       11.3549444094       18.6257904847
  C        17.5269572194        0.5560880496        7.0343083237
  H        18.3009442624        0.5632533714        7.8113255782
  C        15.4676343229       15.7196842693       11.3873175595
  H        14.6909074590       14.9453521900       11.3897463433
  C        15.3936686811        4.8926500864        0.5583459067
  H        14.6154527863        4.1198536031        0.5556385924
  C         4.6537706599       15.7879247784        0.5833464946
  H         3.8760701361       15.0145798710        0.5809964437
  C         4.5891459228        4.9551891791       11.4082313938
  H         3.8118947769        4.1814522037       11.4099223687
  C         6.7606707144       15.7747916274       11.4028901326
  H         7.5350499058       14.9980944420       11.4004212835
  C         6.6901472260        4.9679194347        0.5891321230
  H         7.4643650108        4.1910783003        0.5940673849
  C        17.5874670573       15.7024320343        0.5679750547
  H        18.3616875155       14.9256686133        0.5708756702
  C        17.5260989481        4.9042107233       11.3805317885
  H        18.2994051466        4.1264539383       11.3774513343
  C        15.4147171573        7.0234454526       11.3868840565
  H        14.6405007078        7.8002231281       11.3897599024
  C        15.4737125181       17.8190002085        0.5613140275
  H        14.6987711879       18.5951314467        0.5579769582
  C         4.5762629398        7.0838855910        0.5806204788
  H         3.8010630932        7.8596670568        0.5760820008
  C         4.6471267850       17.8917979816       11.4086813690
  H         3.8727474295       18.6684093423       11.4109542568
  C         6.7078053910        7.0667595753       11.4037549948
  H         7.4848542395        7.8407805511       11.4021639480
  C         6.7729559952       17.8986005045        0.5887539463
  H         7.5501089007       18.6724345507        0.5910252333
  C        17.5140015976        7.0026683515        0.5648740610
  H        18.2910660454        7.7766415754        0.5679285016
  C        17.5855770590       17.8324847670       11.3815815293
  H        18.3623479361       18.6067427924       11.3788870858
 Xe        20.6546605195       10.2935938930       10.3392061679
