     409
 i =      56, E =    -5133.8527722587
  N         2.8103070652        5.2125037016       15.9690464444
  C         1.4928240792        5.4989876406       16.2269220690
  N        13.5821185944        5.1222299859        5.0773282732
  C        12.2625388225        5.3556754793        5.3794062330
  N        19.6342039850       17.6280856966       16.0344502988
  C        20.9509723896       17.3441934197       16.2980171169
  N         8.7579865096       17.5396815799        5.2142446477
  C        10.0769424156       17.2680489922        5.4772541099
  N        19.4415820653        5.2444317197        6.7861129517
  C        20.7639316997        5.5006102059        6.5173195794
  N         8.6662326306        5.1669582332       17.5688144548
  C         9.9870989797        5.4010228206       17.2816996787
  N         2.8980394668       17.5347403153        6.7825523851
  C         1.5793002127       17.2779932925        6.5065662693
  N        13.7697953881       17.6362308241       17.6093779190
  C        12.4532655205       17.3530574178       17.3427129766
  N        15.7777954548        3.0311252701        5.1804547129
  C        16.0708466634        1.7212431516        5.4623486749
  N        15.9623257923       13.9203107012       16.0253931814
  C        16.2256146838       12.6022812666       16.2969664143
  N        15.9291227690       19.7836425481       17.5847526871
  C        16.1630947839       21.1014526343       17.2866356971
  N        15.8057320539        8.9048851504        6.6782571347
  C        16.1105211955       10.2231348456        6.4477865656
  N         6.5825993931       19.6957797979        5.2161838393
  C         6.2743559529       21.0092090165        5.4651098663
  N         6.6022406738        8.8889528427       15.9985919450
  C         6.3557745198       10.2114214691       16.2763829277
  N         6.5147812332        3.0505667239       17.5721593545
  C         6.2717179426        1.7300121509       17.2993704407
  N         6.5902190900       13.8108193440        6.7381526423
  C         6.3076238931       12.4964764371        6.4600760878
  N         5.0437607101       16.0053888865        3.0444153720
  C         5.3202020111       16.2821270847        1.7287619139
  N         4.9586085578        5.1705708782       13.8378333256
  C         5.2126692153        5.4417647261       12.5174402677
  N        17.4794912381       16.0660868838       19.7494220383
  C        17.1900736716       16.3175852726       21.0662474861
  N        17.1867657622        5.3100227303        8.8782796611
  C        16.9185853932        5.5957100349       10.1940244218
  N         4.9520165858        6.7734527996       19.6900544314
  C         5.2010301383        6.4936769231       21.0104651917
  N         5.0755265982       17.5233727543        8.9201721993
  C         5.3656092897       17.2638350446       10.2349888506
  N        17.3630431465        6.7043033873        3.0182244602
  C        17.1097430220        6.4321261577        1.7003480375
  N        17.4817133147       17.6298768364       13.8743112790
  C        17.1979712557       17.3558727013       12.5596318323
  N         4.8982238961        2.9936654743        6.7087564881
  C         5.1941995138        1.6777673463        6.4531059426
  N         5.1006322459       13.8618679088       17.5682689255
  C         5.3604679756       12.5432626138       17.2934632325
  N        17.4149203809       19.7464332797        6.7615447112
  C        17.1223340668       21.0605917817        6.4915674028
  N        17.4069089545        8.9515925632       17.6382428838
  C        17.1787637305       10.2717476827       17.3429647388
  N         5.0792285756       19.7096524697       16.0080028430
  C         5.3184952830       21.0316134638       16.2810212524
  N         4.9618039526        8.8771302674        5.1717297917
  C         5.2560184054       10.1903761756        5.4410281483
  N        17.3266306769        3.1178888222       15.9276792337
  C        17.0988049050        1.7938006003       16.2143900597
  N        17.4411917133       13.8659924058        5.2192764247
  C        17.1632028819       12.5471654191        5.4747914606
  N         2.9422914846       16.0144096299       17.5657226927
  C         1.6263670066       16.2996288877       17.3034098634
  N        13.7255447175       15.9900012919        6.7510646529
  C        12.4045825082       16.2483662576        6.4800713402
  N        19.5766368956       16.0247224523        5.2059684330
  C        20.8945278481       16.2866931678        5.4798772120
  N         8.8262204903       16.0291605668       16.0548066152
  C        10.1404605208       16.3117425485       16.3303811166
  N        19.5054058576        6.7951691305       17.5268027773
  C        20.8184777206        6.5226653937       17.2430057400
  N         8.6328797072        6.6111563414        6.7292657918
  C         9.9450772000        6.3260213717        6.4506120163
  N         2.7695004795        6.7484205599        5.2001243876
  C         1.4516593118        6.4910700139        5.4813323012
  N        13.6338686431        6.6708154426       16.0005154448
  C        12.3155948284        6.3758874845       16.2424365300
  N        15.8439798530        5.1761765548       19.6966963562
  C        16.1143849825        5.4309468321       21.0145044861
  N        15.8786903689       16.0504006488        8.9340853420
  C        16.1554379973       16.3292793339       10.2497206380
  N        15.8601921890       17.5588717460        3.0633044108
  C        16.1425261067       17.3017133339        1.7459381263
  N        15.6651691289        6.9388320914       13.8370915378
  C        15.9187344152        6.6439885647       12.5187990728
  N         6.4370904928        5.1592379194        3.0068236975
  C         6.1785172168        5.4457834898        1.6920783347
  N         6.6896479287       16.0088182321       13.8733627352
  C         6.4116391078       16.2694851407       12.5539145227
  N         6.6296093304       17.5812773623       19.7392897514
  C         6.3507120431       17.3083475503       21.0554065305
  N         6.4734045254        6.7095332290        8.8661179881
  C         6.2058743765        6.4505532211       10.1859897600
  N        19.5815450861       17.5803950420        6.7628424251
  C        20.8983701929       17.2998589192        6.4981014430
  N         8.8067655366       17.5997876639       17.5972088643
  C        10.1290371395       17.3369974307       17.3365025754
  N         2.7649904441        5.1947801267        6.7598079586
  C         1.4474637916        5.4807173518        6.5026126733
  N        13.6280378271        5.1880966883       17.6218009188
  C        12.3109707200        5.4116433368       17.3055603642
  N         2.9501488030       17.5622012301       16.0046656993
  C         1.6315484450       17.3115785053       16.2845784598
  N        13.7139292716       17.5688306835        5.2206069870
  C        12.3983420615       17.2813480060        5.4819960771
  N        19.4852998917        5.2750954891       15.9372736127
  C        20.8085281737        5.5244307883       16.2101862407
  N         8.6144824579        5.1075708509        5.1242826145
  C         9.9367348014        5.3481020557        5.4012775236
  N         6.6230130684       19.7379738223       17.5746228921
  C         6.3277804122       21.0506167230       17.3028992913
  N         6.5421464148        8.8503119166        6.7028355346
  C         6.2854163380       10.1733400440        6.4429180549
  N         6.4437080007        3.0050152556        5.1435347775
  C         6.2038675275        1.6870328441        5.4317695345
  N         6.6823048264       13.8536487784       16.0381507382
  C         6.3934475071       12.5360860579       16.2954115207
  N        15.8039941278        3.0903508215       17.5154836650
  C        16.1022232223        1.7794120235       17.2489263235
  N        15.9125661802       13.8605800699        6.8010824742
  C        16.1659798822       12.5442598145        6.5070567237
  N        15.8673238549       19.7202226198        5.1971099076
  C        16.1151776844       21.0414576508        5.4675930374
  N        15.8814535280        8.9659075871       16.0562261133
  C        16.1813446133       10.2814257008       16.3100634965
  N        17.3996247670        6.7318690917       19.7124624085
  C        17.1290892648        6.4469237278       21.0252656180
  N        17.4399271383       17.6004909761        8.9174402035
  C        17.1760998345       17.3401278260       10.2378591812
  N         4.9000344933        6.7330504088        3.0127546999
  C         5.1751293108        6.4734525343        1.6930596717
  N         5.1221860913       17.5533983917       13.8703701913
  C         5.3893421679       17.2785619157       12.5542359599
  N        17.4207334182       16.0090429007        3.0630064655
  C        17.1605295931       16.2887725967        1.7459884357
  N        17.2269539311        5.3792326656       13.8370994040
  C        16.9377418224        5.6321654156       12.5195375832
  N         5.0806390240       16.0180196356       19.7264242021
  C         5.3383328412       16.2892382525       21.0464428139
  N         4.9312450111        5.1407762088        8.8800748693
  C         5.1995404471        5.4256698505       10.1955487894
  N        17.4678366706       19.7937041311       16.0115633282
  C        17.1656934737       21.1103307216       16.2580491414
  N        17.3405582248        8.9096388602        5.1053781013
  C        17.1124000871       10.2256150888        5.4192473698
  N         4.9650697823        3.0255318559       16.0108892861
  C         5.2603218112        1.7119968790       16.2798580281
  N         5.0257940740       13.8347076615        5.1905666262
  C         5.2844949290       12.5126867973        5.4519108303
  N        17.3012666618        3.0700550244        6.7675034437
  C        17.0688132659        1.7442431996        6.4954756863
  N        17.4934200642       13.9119883449       17.6028554123
  C        17.2229251144       12.5946838580       17.3286736828
  N         5.0324262022       19.6784674808        6.7762048672
  C         5.2626850979       20.9980793446        6.4845613245
  N         5.0148779182        8.9085079757       17.5237653970
  C         5.3204984041       10.2223373146       17.2725828672
  N        19.4584420631        6.7680921122        5.2011714585
  C        20.7719680698        6.4997502291        5.4856070400
  N         8.6808339685        6.6404170137       15.9348319605
  C         9.9944902237        6.3589959707       16.2138407879
  N         2.8169475317        6.7736779255       17.5198170127
  C         1.4985440904        6.5130587848       17.2442891440
  N        13.5813779509        6.6308461891        6.6755565864
  C        12.2645638729        6.3380470762        6.4264492041
  N         2.8911667019       15.9979097189        5.2089400795
  C         1.5749153472       16.2719434023        5.4815102700
  N        13.7823661046       16.0629453715       16.0729626770
  C        12.4622141338       16.3262734760       16.3382988595
  N        19.6284338376       16.0725719596       17.5925573096
  C        20.9464301024       16.3297558056       17.3152314129
  N         8.7645905593       15.9508565589        6.7362423484
  C        10.0816433167       16.2315661186        6.4714383254
  N         6.6019019304       17.5588296884        3.0588372672
  C         6.3362904240       17.2974803619        1.7382076391
  N         6.4951399157        6.7450846308       13.8223751591
  C         6.2167898122        6.4688273326       12.5072157550
  N         6.4911342102        5.2027745441       19.7015409542
  C         6.2053573875        5.4672154697       21.0151567883
  N         6.6358903558       15.9711230060        8.9098098720
  C         6.3850861828       16.2518313715       10.2301585842
  N        15.9254650923       17.6237616205       19.7484697105
  C        16.1745835870       17.3335287698       21.0658929313
  N        15.6166732667        6.8587521698        8.8662967388
  C        15.8963973602        6.6033430901       10.1861842328
  N        15.8115368002        5.1436349797        3.0026837666
  C        16.0967042682        5.4141855433        1.6896668564
  N        15.9166171008       16.0848266737       13.8931878451
  C        16.1757499689       16.3469057137       12.5720879181
 Zn        14.6500461591       14.7906433012       14.7729972140
 Br        13.2566854315       13.5629556335       13.4594114678
 Zn        14.5016171124        3.8398449597        3.8313667790
 Br        13.2393490599        2.4910972656        2.5032457701
 Zn         3.7424435582       14.7161812320        3.8991158427
 Br         2.4156830112       13.4241515398        2.5746237065
 Zn         3.6730575256        3.8838826509       14.7133879257
 Br         2.3423825937        2.5638249223       13.4182719754
 Zn         7.8424901554        7.9895682153       14.6763849433
 Br         9.1553217009        9.2738565405       13.3283025931
 Zn         7.8942042480       18.8412126723        3.9370441947
 Br         9.2062272409       20.1661755712        2.6299527901
 Zn        18.6412445683        8.0235570572        3.8495651002
 Br        19.9797230099        9.3173626926        2.5416824777
 Zn        18.7746116559       18.9258463181       14.7354626720
 Br        20.0893659579       20.2403764208       13.4212117722
 Zn         7.8981860066       14.6584905498        8.0254134360
 Br         9.1957134069       13.3228237268        9.3378345173
 Zn         7.7948777552        3.9063948378       18.8759486295
 Br         9.1135196363        2.6009275606       20.1946739709
 Zn        18.7771738177       14.7764223001       18.8914673652
 Br        20.0879818638       13.4558311921       20.2042553540
 Zn        18.5237398924        3.9971596563        8.0749637787
 Br        19.8193657430        2.7043435734        9.4304893534
 Zn        14.3663698797        8.0884120001        7.8313185792
 Br        12.7213288766        9.6663487149        8.0864574736
 Zn        14.6449341908       18.9295876263       18.8889967147
 Br        13.3245082341       20.2313580060       20.2099526807
 Zn         3.6860401108        8.0709534922       18.8025743398
 Br         2.3897801933        9.4125971063       20.1078589592
 Zn         3.7654044038       18.8136291318        8.0811788821
 Br         2.4535602701       20.1244229068        9.4024720895
 Zn        14.6081590844       14.7404138079        8.0646498789
 Br        13.2164843396       13.5287586171        9.3956201165
 Zn        14.5275939924        3.8935174391       18.8660337747
 Br        13.2433485160        2.5480601383       20.1755430533
 Zn         3.7985993124       14.7194302942       18.8556263256
 Br         2.4758508506       13.4102516146       20.1661547588
 Zn         3.6243666351        3.8601886438        8.0156316094
 Br         2.2995243206        2.5572200652        9.3324349506
 Zn         7.8035874039        7.9522564855        7.9983306364
 Br         9.1110712081        9.2439384189        9.3442963182
 Zn         7.9133046350       18.8858966211       18.8795082546
 Br         9.2116299675       20.2118485919       20.1999329137
 Zn        18.6948383351        8.0489501441       18.8884118957
 Br        20.0403026639        9.3146707341       20.2163486995
 Zn        18.7234811032       18.8899734648        8.0441510902
 Br        20.0428512733       20.2190505173        9.3403380534
 Zn        14.4234881124        8.1722417671       14.9041115897
 Br        12.7554798464        9.7577567131       14.8466706809
 Zn        14.5644429212       18.8499372374        3.9174906739
 Br        13.2390596995       20.1497929682        2.6009666238
 Zn         3.6329904112        8.0356477283        3.8975663608
 Br         2.3330074825        9.3759352084        2.5951043793
 Zn         3.8100480853       18.8374838019       14.7073871611
 Br         2.4968842896       20.1479562709       13.3859157746
 Zn         7.9830479161       14.7236954129       14.7592930546
 Br         9.2903165765       13.4056091561       13.4396237632
 Zn         7.7283848647        3.8459405123        3.8342040539
 Br         9.0305315958        2.5272711627        2.5117743285
 Zn        18.7202787540       14.7229173271        3.9165668330
 Br        20.0267162376       13.3995246863        2.6034077895
 Zn        18.5581654667        4.0512186765       14.6290750283
 Br        19.8474731381        2.7545260581       13.2712151778
 Zn         5.7437242929        5.9644780666       16.7650704524
 Zn        16.7143879733       16.8621213546       16.8237995030
 Zn        16.5046138242        5.9813607804        5.9057194492
 Zn         5.8323220072       16.7572159702        5.9905400546
 Zn         5.6885245225        5.9305319716        5.9416582918
 Zn        16.6567641101       16.8012534878        5.9960917808
 Zn         5.8904194235       16.7873704407       16.8035904768
 Zn        16.5546074613        6.0409668581       16.8048242648
  N         3.5599876035        5.9857985495       16.7489798599
  N        14.3273704013        5.8969393665        5.8608932230
  N        18.8854857360       16.8563546400       16.8173532557
  N         8.0146599190       16.7430399849        5.9761868350
  N        18.7024907703        6.0087260806        5.9873340221
  N         7.9267167240        5.9175775643       16.7570381177
  N         3.6416686065       16.7622573759        5.9965180537
  N        14.5229666485       16.8553234244       16.8406447310
  N        16.5238399419        3.7968214368        5.9705302510
  N        16.7287561750       14.6640541550       16.8166245792
  N        16.7161618513       19.0425904176       16.8116453259
  N        16.5502654999        8.1616542317        5.8690506011
  N         5.8275404596       18.9405159538        6.0079377359
  N         5.7911421431        8.1526313013       16.7535024602
  N         5.7276113021        3.7846412261       16.7930463731
  N         5.8145806611       14.5693968129        5.9687510499
  N         5.8204412980       16.7779281404        3.7985022312
  N         5.7340746827        5.9580928103       14.5767835245
  N        16.7132178718       16.8551409189       19.0026091876
  N        16.4027651043        6.0737676030        8.1240735144
  N         5.7317645828        5.9918556845       18.9486858449
  N         5.8447229322       16.7415326129        8.1688059103
  N        16.5779907090        5.9260292916        3.7561431828
  N        16.7052631112       16.8597842186       14.6307363719
  N         5.6582057341        3.7460606063        5.9176750278
  N         5.8989011027       14.6043538700       16.8075362281
  N        16.6522315907       18.9868214967        5.9795819918
  N        16.6221637679        8.2133431545       16.8598673236
  N         5.8650518080       18.9769699320       16.7903204430
  N         5.7405514645        8.1171813070        5.9359206563
  N        16.5478374984        3.8505998906       16.7183655709
  N        16.6824328616       14.6104809573        6.0176987945
  N         3.6938878560       16.7797587684       16.7803722915
  N        14.4665117325       16.7878042342        5.9889481789
  N        18.8327493263       16.8068378354        5.9820918777
  N         8.0703749518       16.8089955667       16.8219975036
  N        18.7483135950        6.0411216232       16.7365075677
  N         7.8763785892        5.8720361510        5.9245818025
  N         3.5130385896        5.9630585847        5.9732800732
  N        14.3764731273        5.9540873186       16.8333950654
  N        16.6196603108        5.9629631228       18.9583852326
  N        16.6568748657       16.8206589204        8.1793640098
  N        16.6354818171       16.7787098789        3.8103135332
  N        16.4592693007        6.1654499722       14.5849079622
  N         5.6652220501        5.9391129304        3.7566664169
  N         5.9076738824       16.7849362402       14.6184564453
  N         5.8609145111       16.7996741990       18.9863902074
  N         5.7030705525        5.9185366009        8.1264537715
  C        11.3062898675       15.7639157342       15.7913050610
  H        11.3147936458       14.9820087947       15.0225312450
  C        11.0962068909        4.8152790041        4.8278057239
  H        11.0900327487        4.0644667822        4.0288434429
  C         0.4117385469       15.7324463330        4.9279221886
  H         0.4073853826       14.9613075507        4.1480575786
  C         0.3284272067        4.9683765616       15.6631005316
  H         0.3276228913        4.1993852692       14.8814030935
  C        11.1566888074        6.8719885674       15.6409493868
  H        11.1531539499        7.6177326427       14.8404537348
  C        11.2354422709       17.8337856594        4.9398808470
  H        11.2328890242       18.6234251040        4.1788224341
  C         0.2932698264        7.0414749915        4.9301765621
  H         0.2937627445        7.8094796044        4.1470187904
  C         0.4754939818       17.8774410608       15.7410847096
  H         0.4823982058       18.6524052023       14.9650394943
  C        11.2449125593       15.6786443666        7.0129282840
  H        11.2479541039       14.8896022583        7.7744045824
  C        11.1456095081        4.8783579093       17.8640871710
  H        11.1399498949        4.1413707887       18.6756646701
  C         0.4623822252       15.7668436818       17.8612610071
  H         0.4565181307       14.9938126696       18.6392648699
  C         0.2842858983        4.9491320221        7.0675033033
  H         0.2840835452        4.1817862505        7.8508787363
  C        11.1060918281        6.8493519719        7.0141300678
  H        11.1053682376        7.6091842474        7.8017876532
  C        11.2858655491       17.8992384952       17.8840000106
  H        11.2787835431       18.6814318751       18.6526243075
  C         0.3409001923        7.0634661337       17.7971269079
  H         0.3424386963        7.8318096210       18.5799955616
  C         0.4218004532       17.8354670764        7.0554611048
  H         0.4262698814       18.6074061660        7.8345238264
  C        15.6709541323       11.4500806629       15.7406357019
  H        14.8926768229       11.4650612843       14.9709559257
  C        15.5506323325        0.5496773245        4.9085407341
  H        14.7844278686        0.5327455717        4.1237707319
  C         4.7159667853       11.3608490386        4.9022852949
  H         3.9328492346       11.3738973570        4.1345641557
  C         4.7420352339        0.5385066987       15.7282806715
  H         3.9695650695        0.5174191256       14.9500690604
  C        15.6037370673       11.3835623056        7.0386074192
  H        14.8250278766       11.3838414791        7.8083260689
  C        15.5903301866        0.6149328940       17.8245948791
  H        14.8258526482        0.6078206845       18.6113228676
  C         4.7828012526       11.3876034455       17.8234874564
  H         3.9941071294       11.3946467916       18.5855635626
  C         4.6797571160        0.5097806231        7.0202116449
  H         3.9077231714        0.4961581359        7.7990739287
  C         6.9351823922       11.3690531424       15.7480920901
  H         7.7236189415       11.3638344519       14.9858165116
  C         6.7849653645        0.5363661038        4.8944004282
  H         7.5562383417        0.5502215597        4.1147688054
  C        17.6821693715       11.3877389160        4.8923137144
  H        18.4459752713       11.3902688978        4.1055066664
  C        17.6720527213        0.6372225993       15.6772498540
  H        18.4357196564        0.6436703145       14.8904435156
  C         6.8520203723       11.3256852140        6.9945443183
  H         7.6342030650       11.3131305272        7.7631325059
  C         6.8468915926        0.5838617322       17.8536087289
  H         7.6186402620        0.6060830097       18.6325854846
  C        17.7447331351       11.4265657362       17.8914260916
  H        18.5071574720       11.4164387336       18.6795174266
  C        17.6381468225        0.5939557649        7.0496879456
  H        18.4037900591        0.6105694431        7.8345157295
  C        15.6113889787       15.7934972915       11.4195801255
  H        14.8269234482       15.0273495356       11.4337047090
  C        15.5572634658        4.8686451029        0.5242207875
  H        14.7823178822        4.0924518129        0.5116072142
  C         4.7794776717       15.7367462115        0.5617562161
  H         4.0041400182       14.9611366829        0.5525029862
  C         4.6603776230        4.8803329372       11.3632385959
  H         3.8916509229        4.0983184892       11.3734922174
  C         6.9519374239       15.7154357444       11.3899403475
  H         7.7306474637       14.9433939941       11.3866716824
  C         6.7351363722        4.8996971186        0.5347033554
  H         7.5021120678        4.1156624011        0.5361763516
  C        17.7244618633       15.7523524440        0.5863103224
  H        18.5001956556       14.9770967097        0.5869868476
  C        17.4768272869        5.0674644551       11.3605681870
  H        18.2552246119        4.2936789729       11.3669047468
  C        15.3564621750        7.1587314933       11.3483554659
  H        14.5832286973        7.9316410219       11.3407293800
  C        15.6065439835       17.8654744688        0.5858303520
  H        14.8294763014       18.6394807025        0.5857285268
  C         4.6445224610        7.0399330081        0.5305970020
  H         3.8792486761        7.8254157440        0.5284778970
  C         4.8261400284       17.8193488656       11.3966475685
  H         4.0465100962       18.5909666104       11.3999137233
  C         6.7536462402        7.0164556516       11.3399494565
  H         7.5224040624        7.7986435787       11.3291978714
  C         6.8910124728       17.8542384648        0.5826639855
  H         7.6647974236       18.6314389693        0.5916858159
  C        17.6716386128        6.9895126462        0.5506335473
  H        18.4452421186        7.7669797860        0.5629327188
  C        17.7389448691       17.8950354121       11.3901589395
  H        18.5183357490       18.6665106927       11.3765205660
 Xe        13.5552382766       10.4568287030       11.4548063389
