     409
 i =      56, E =    -5133.8841376384
  N         2.7667234005        5.2358961266       16.0327766429
  C         1.4483470619        5.4995916207       16.3040937275
  N        13.5868006568        5.2050976364        5.2232250032
  C        12.2695963196        5.4810921169        5.4897495776
  N        19.4772741745       17.5800745088       16.0376567941
  C        20.7960834386       17.3172995916       16.3090782253
  N         8.6676489121       17.6059873494        5.2197028420
  C         9.9849121596       17.3284412115        5.4863463955
  N        19.4541020185        5.2080407084        6.7708665112
  C        20.7706424152        5.4861917184        6.5038002292
  N         8.6260498598        5.2257755927       17.5948151678
  C         9.9448415276        5.4886345122       17.3234099957
  N         2.7983247420       17.6070755719        6.7654290070
  C         1.4813816278       17.3333931616        6.4948749459
  N        13.6227213292       17.5772264855       17.5954547375
  C        12.3040800664       17.3145778768       17.3229256770
  N        15.7413884782        3.0456047784        5.2275704238
  C        16.0179306453        1.7288061876        5.4954986060
  N        15.7687064419       13.8669866629       16.0340949574
  C        16.0334918485       12.5484577289       16.3034799909
  N        15.7704159376       19.7267513997       17.5941020786
  C        16.0292487555       21.0452942102       17.3197836061
  N        15.7377484028        8.9118574780        6.7605909121
  C        16.0128163427       10.2283717188        6.4919636885
  N         6.5073176203       19.7665601002        5.2195877792
  C         6.2274362768       21.0835639171        5.4846323698
  N         6.4831230831        8.9382706295       16.0345082651
  C         6.2177484475       10.2572506111       16.3035824768
  N         6.4681713184        3.0819729673       17.5952221739
  C         6.2061930271        1.7634547613       17.3227203872
  N         6.5046077458       13.8975269443        6.7695446294
  C         6.2302293038       12.5804147358        6.5004925712
  N         4.9623330973       16.0584054476        3.0599340550
  C         5.2324676803       16.3293968700        1.7429033644
  N         4.9202397454        5.2334950177       13.8819613282
  C         5.1906514445        5.5037561751       12.5644012796
  N        17.3302870609       16.0099695461       19.7462813831
  C        17.0619401212       16.2800233047       21.0645613097
  N        17.3040569451        5.2053403008        8.9271749588
  C        17.0275900904        5.4697190686       10.2449287975
  N         4.9123681705        6.7946749914       19.7453995822
  C         5.1833202425        6.5262474175       21.0635143271
  N         4.9523672077       17.6066972296        8.9239629656
  C         5.2231344172       17.3381253450       10.2416725613
  N        17.2924469950        6.7520027268        3.0637559027
  C        17.0214131470        6.4800240961        1.7467734159
  N        17.3277701453       17.5751308080       13.8837930487
  C        17.0598742851       17.3035293104       12.5658941403
  N         4.9202717410        3.0782710523        6.7653883939
  C         5.1957151252        1.7613702336        6.4955902173
  N         4.9506967650       13.9012375317       17.5915100819
  C         5.2135593752       12.5827490011       17.3195003076
  N        17.3244576207       19.7344970199        6.7738933103
  C        17.0475025608       21.0513540506        6.5067779897
  N        17.2965104196        8.9059089667       17.5937760403
  C        17.0352407499       10.2241492406       17.3205452370
  N         4.9465533902       19.7584587663       16.0313288001
  C         5.2079472447       21.0774970126       16.3034661517
  N         4.9275492407        8.9447410085        5.2212493595
  C         5.2043022326       10.2617473840        5.4883205732
  N        17.2937106310        3.0492343930       16.0332476645
  C        17.0283759060        1.7305289970       16.3017277730
  N        17.3313938836       13.8628724077        5.2276031604
  C        17.0520246768       12.5459267488        5.4916829133
  N         2.8011972462       16.0539098211       17.5965070274
  C         1.4822691830       16.3168187569       17.3260028046
  N        13.6201174456       16.0249896716        6.7689964753
  C        12.3033076034       16.3001723192        6.4990356507
  N        19.4858372625       16.0251013635        5.2184383166
  C        20.8029666571       16.3046580104        5.4832715538
  N         8.6602316496       16.0484304266       16.0332545138
  C         9.9788483260       16.3124524533       16.3045792392
  N        19.4445732599        6.7582878209       17.5978833559
  C        20.7632964669        6.4983664741       17.3240544597
  N         8.6339353567        6.7806677221        6.7698501384
  C         9.9508912435        6.5066384222        6.5012201921
  N         2.7647092364        6.7933466062        5.2238592184
  C         1.4477752180        6.5171084085        5.4920712535
  N        13.5877627179        6.7594741153       16.0363090519
  C        12.2694727994        6.4935979282       16.3065224618
  N        15.7350275888        5.1933973201       19.7478826676
  C        16.0051706711        5.4631852178       21.0660031700
  N        15.7736884885       16.0198939474        8.9260764736
  C        16.0450232275       16.2881414583       10.2439256707
  N        15.7828313104       17.5724795389        3.0630827461
  C        16.0515907530       17.2996561248        1.7459639099
  N        15.7401699244        6.7543011684       13.8840008982
  C        16.0089724785        6.4823091967       12.5662784008
  N         6.4726944701        5.2414745714        3.0611805831
  C         6.2011333408        5.5121124561        1.7442329815
  N         6.5065837600       16.0516438628       13.8804702514
  C         6.2380507874       16.3224986326       12.5627606414
  N         6.5149418989       17.6136891620       19.7432568032
  C         6.2465828521       17.3444259781       21.0616087946
  N         6.4817500977        6.7853694315        8.9258399484
  C         6.2096369729        6.5170434967       10.2435048482
  N        19.4813103465       17.5834644024        6.7720808811
  C        20.7998417749       17.3211079852        6.4983560433
  N         8.6651321797       17.6067629815       17.5868954397
  C         9.9822659177       17.3291854449       17.3193741040
  N         2.7694918783        5.2354346880        6.7769441456
  C         1.4512477007        5.5004747844        6.5067384275
  N        13.5830674402        5.2010741920       17.5902238348
  C        12.2661245740        5.4769431388       17.3213980238
  N         2.7943304364       17.6061205524       16.0378831483
  C         1.4776460678       17.3311808246       16.3091272401
  N        13.6254311249       17.5792651842        5.2110517519
  C        12.3067887075       17.3152969835        5.4827288220
  N        19.4510002945        5.2023706995       16.0431047296
  C        20.7675313575        5.4822516376       16.3089902250
  N         8.6301977087        5.2281332021        5.2119351177
  C         9.9485213528        5.4920854951        5.4845865703
  N         6.5039001125       19.7654967858       17.5857696810
  C         6.2241768059       21.0821381501       17.3187056566
  N         6.4862813360        8.9401821471        6.7742398783
  C         6.2211602315       10.2588039576        6.5029169901
  N         6.4747555235        3.0836469345        5.2077431850
  C         6.2110069920        1.7651155879        5.4794348498
  N         6.5038855003       13.8960356370       16.0336207994
  C         6.2283210617       12.5790392852       16.3029654683
  N        15.7364128906        3.0423757825       17.5874562182
  C        16.0123199280        1.7258970021       17.3170757890
  N        15.7675373632       13.8669382213        6.7740598154
  C        16.0304833771       12.5486609440        6.5013593622
  N        15.7727337943       19.7296597213        5.2152161904
  C        16.0333227973       21.0479813148        5.4898512559
  N        15.7438876550        8.9109468884       16.0359792903
  C        16.0207058109       10.2277623564       16.3038988883
  N        17.2891003402        6.7513838473       19.7481173286
  C        17.0199689268        6.4798404156       21.0656016853
  N        17.3290170968       17.5764681328        8.9268360054
  C        17.0605741655       17.3040353678       10.2444288982
  N         4.9153349077        6.7954617071        3.0641129600
  C         5.1845945423        6.5269182561        1.7455279730
  N         4.9501873667       17.6056549329       13.8802454062
  C         5.2219947848       17.3376480574       12.5625689056
  N        17.3317088346       16.0100741339        3.0651974463
  C        17.0630066158       16.2797441369        1.7466703145
  N        17.3017657339        5.2036430692       13.8848444717
  C        17.0290764266        5.4709048203       12.5668100996
  N         4.9600770529       16.0575709578       19.7454517841
  C         5.2310013798       16.3286798345       21.0624669908
  N         4.9234305662        5.2320299755        8.9255350321
  C         5.1921975304        5.5030915297       10.2432155174
  N        17.3218844582       19.7331213537       16.0356731362
  C        17.0431913496       21.0497212887       16.3026462739
  N        17.3031645075        8.9074831037        5.2151862584
  C        17.0357960814       10.2255250619        5.4843603593
  N         4.9149429479        3.0763467977       16.0370884628
  C         5.1915482177        1.7593529747       16.3060233608
  N         4.9515346633       13.9014355357        5.2112078174
  C         5.2155683091       12.5831181312        5.4838168949
  N        17.3003599498        3.0509730267        6.7797339486
  C        17.0349048695        1.7323845539        6.5098478485
  N        17.3262744764       13.8611263997       17.5875756389
  C        17.0498994399       12.5445355916       17.3184207477
  N         4.9491545246       19.7610495840        6.7725580975
  C         5.2105522462       21.0797714150        6.4991351665
  N         4.9244624741        8.9448374110       17.5878996699
  C         5.2009503289       10.2614811912       17.3182752471
  N        19.4482961762        6.7617767661        5.2137271023
  C        20.7667806154        6.5011595952        5.4876063230
  N         8.6319121173        6.7790197062       16.0380433948
  C         9.9485724246        6.5035336018       16.3071783738
  N         2.7613865587        6.7939190963       17.5865658964
  C         1.4445077081        6.5164307964       17.3187012440
  N        13.5893099146        6.7637913060        6.7763255823
  C        12.2715855614        6.4979104887        6.5043667906
  N         2.8032796416       16.0553733565        5.2057727580
  C         1.4846883236       16.3195132699        5.4774452035
  N        13.6174144209       16.0229630262       16.0378750538
  C        12.3005139244       16.2994724674       16.3066431990
  N        19.4838337839       16.0205566472       17.5906484302
  C        20.8006214646       16.3002451024       17.3236168873
  N         8.6632393815       16.0473647378        6.7725070215
  C         9.9817667135       16.3114635208        6.5008267499
  N         6.5173231467       17.6141297664        3.0619617239
  C         6.2481285825       17.3450257706        1.7434727268
  N         6.4790536430        6.7858608844       13.8829271403
  C         6.2083476032        6.5173757597       12.5649606256
  N         6.4684594148        5.2393334847       19.7462122308
  C         6.1993627883        5.5109185713       21.0635276037
  N         6.5083048145       16.0517263027        8.9244774056
  C         6.2389615003       16.3226511032       10.2419725158
  N        15.7801369668       17.5714954578       19.7478288790
  C        16.0500634845       17.2995457208       21.0650506341
  N        15.7353872572        6.7487104410        8.9272402380
  C        16.0037327721        6.4767035316       10.2447352555
  N        15.7379069307        5.1946031464        3.0670321645
  C        16.0064360657        5.4635859643        1.7483101662
  N        15.7724800075       16.0188728621       13.8830510616
  C        16.0443073845       16.2877150891       12.5654019143
 Zn        14.4778732306       14.7280680368       14.7444454741
 Br        13.1596689457       13.4183874907       13.4285530975
 Zn        14.4461036411        3.9034479728        3.9381758759
 Br        13.1281772746        2.5914379619        2.6239876366
 Zn         3.6692452716       14.7663947318        3.9116959776
 Br         2.3514767305       13.4544547998        2.5975019990
 Zn         3.6267661831        3.9425691772       14.7417445237
 Br         2.3121013521        2.6281455127       13.4268458599
 Zn         7.7781530976        8.0705957709       14.7460251591
 Br         9.0943173104        9.3837417505       13.4310614047
 Zn         7.8040912910       18.9045024547        3.9346122470
 Br         9.1230771033       20.2165458858        2.6203342708
 Zn        18.5882349984        8.0486066061        3.9152473785
 Br        19.9035595442        9.3594079306        2.5987761165
 Zn        18.6141236151       18.8739280053       14.7459839409
 Br        19.9308349844       20.1857247797       13.4305861093
 Zn         7.7964870229       14.7583529471        8.0626700826
 Br         9.1070910493       13.4386828583        9.3770157513
 Zn         7.7571210030        3.9435532441       18.8877920144
 Br         9.0689414305        2.6269643967       20.2042713916
 Zn        18.6208139286       14.7196890080       18.8789972701
 Br        19.9372267935       13.4034821910       20.1900662752
 Zn        18.5999581414        3.9135765563        8.0641371167
 Br        19.9127133063        2.5990324616        9.3801093586
 Zn        14.4570885555        8.0566692337        8.0661629374
 Br        13.1625618249        9.3820746329        9.3891612184
 Zn        14.4881433181       18.8665406779       18.8889747312
 Br        13.1741515509       20.1788366987       20.2069453930
 Zn         3.6244572617        8.0884303918       18.8783529654
 Br         2.3109852538        9.4061053710       20.1907092760
 Zn         3.6588242453       18.8940351885        8.0621810810
 Br         2.3442059259       20.2098909214        9.3764597634
 Zn        14.4785970733       14.7294517486        8.0635356015
 Br        13.1611509639       13.4194828585        9.3797569024
 Zn        14.4432057073        3.9017303969       18.8808342761
 Br        13.1238747961        2.5900116913       20.1932088094
 Zn         3.6677237890       14.7657026350       18.8870418896
 Br         2.3511653481       13.4550759976       20.2046100743
 Zn         3.6307277953        3.9404830734        8.0629813212
 Br         2.3182840692        2.6237566048        9.3776295272
 Zn         7.7801097740        8.0716424304        8.0633610000
 Br         9.0974201219        9.3839674384        9.3780042240
 Zn         7.8012143963       18.9054575927       18.8757580334
 Br         9.1209597383       20.2190576995       20.1864882019
 Zn        18.5810362452        8.0479756483       18.8895533017
 Br        19.8975957435        9.3581556201       20.2067851710
 Zn        18.6161032230       18.8750676793        8.0646239332
 Br        19.9326939497       20.1861557768        9.3809182578
 Zn        14.4500584454        8.0525960942       14.7439297719
 Br        13.1431818200        9.3712726892       13.4264928553
 Zn        14.4914083775       18.8694582285        3.9152219545
 Br        13.1773020422       20.1830542654        2.5995607427
 Zn         3.6264218191        8.0876272432        3.9354068402
 Br         2.3137662495        9.4044680665        2.6205457475
 Zn         3.6550667989       18.8920085577       14.7401037409
 Br         2.3412932961       20.2089830350       13.4263028652
 Zn         7.7954162654       14.7591404097       14.7408816546
 Br         9.1068099549       13.4396133029       13.4272202250
 Zn         7.7659622650        3.9464147025        3.9124829822
 Br         9.0774709980        2.6294016630        2.5976557204
 Zn        18.6228407020       14.7209088949        3.9367438484
 Br        19.9377786169       13.4054760571        2.6224606051
 Zn        18.5951434034        3.9092156640       14.7501632787
 Br        19.9071893191        2.5943419117       13.4338011584
 Zn         5.6903998951        6.0100891406       16.8170753554
 Zn        16.5526104712       16.7926312013       16.8179683169
 Zn        16.5154556988        5.9814427540        6.0000440690
 Zn         5.7339300368       16.8298692464        5.9961215714
 Zn         5.6951628613        6.0098932259        5.9972841145
 Zn        16.5539253466       16.7976118078        5.9987433306
 Zn         5.7328009741       16.8299496191       16.8155511237
 Zn        16.5108641752        5.9739369028       16.8187390600
  N         3.5105167137        6.0179845995       16.8089001456
  N        14.3345570921        5.9819279789        6.0013246118
  N        18.7341669944       16.7960620595       16.8128003888
  N         7.9187866198       16.8300584403        5.9975205291
  N        18.7041619557        5.9805599984        5.9905153666
  N         7.8818110042        6.0057328640       16.8171376877
  N         3.5476138748       16.8334718723        5.9855602445
  N        14.3667952208       16.7965680838       16.8178544590
  N        16.5181278220        3.7950698846        6.0039595313
  N        16.5498201013       14.6107335932       16.8111938964
  N        16.5513893149       18.9827205615       16.8173257505
  N        16.5189631492        8.1628450146        5.9882772308
  N         5.7330183302       19.0170531493        5.9984895827
  N         5.7009762625        8.1949995905       16.8113731507
  N         5.6880544387        3.8258922790       16.8172374330
  N         5.7308065002       14.6462150078        5.9894813672
  N         5.7393726854       16.8356358700        3.8078582891
  N         5.6996855071        6.0091845625       14.6292866833
  N        16.5547323971       16.7911161155       19.0004185509
  N        16.5222951034        5.9795716016        8.1806829028
  N         5.6898934833        6.0159505414       18.9991582776
  N         5.7298988289       16.8285016984        8.1774947899
  N        16.5158345985        5.9741936343        3.8121202901
  N        16.5489457557       16.7978594918       14.6302405282
  N         5.6947845759        3.8275132253        5.9862336661
  N         5.7305842684       14.6454226043       16.8135169628
  N        16.5528815117       18.9850345546        5.9924378577
  N        16.5159225082        8.1614167029       16.8169585271
  N         5.7298439109       19.0154002410       16.8070517943
  N         5.7037625096        8.1958161657        5.9988322741
  N        16.5126889542        3.7923824932       16.8110606621
  N        16.5534511685       14.6118128727        6.0029906142
  N         3.5446718698       16.8328500750       16.8170193428
  N        14.3693819482       16.7993587257        5.9896687318
  N        18.7371115992       16.7996445231        5.9979292530
  N         7.9161843857       16.8308624514       16.8090357993
  N        18.7007347562        5.9751937559       16.8228167808
  N         7.8849398581        6.0070358325        5.9899703403
  N         3.5138039226        6.0168613009        6.0008577191
  N        14.3317841679        5.9778602515       16.8129923751
  N        16.5116799504        5.9730162548       19.0014175883
  N        16.5504393923       16.7995016946        8.1799501154
  N        16.5571586708       16.7922783603        3.8109478858
  N        16.5217288544        5.9800743951       14.6311352931
  N         5.6946815485        6.0176850445        3.8094769519
  N         5.7275467127       16.8278786163       14.6273185403
  N         5.7368149624       16.8351236800       18.9976574515
  N         5.7034482869        6.0079362733        8.1790794521
  C        11.1372216146       15.7562377489       15.7560851505
  H        11.1334230959       14.9805813383       14.9807080093
  C        11.1076691031        4.9368269445        4.9373543647
  H        11.1056146129        4.1612854815        4.1618895864
  C         0.3259199239       15.7635777311        4.9296676331
  H         0.3295568927       14.9889941443        4.1532747935
  C         0.2907403200        4.9413780591       15.7565023128
  H         0.2954524104        4.1659691657       14.9808819386
  C        11.1111665570        7.0482925537       15.7569529315
  H        11.1143034741        7.8239191858       14.9815019006
  C        11.1480134727       17.8714169498        4.9348990866
  H        11.1513585302       18.6471734977        4.1596386361
  C         0.2846472536        7.0596952981        4.9407479932
  H         0.2803160348        7.8358441916        4.1658644999
  C         0.3137189984       17.8745605938       15.7600860484
  H         0.3086091622       18.6507657834       14.9852286147
  C        11.1403455603       15.7558117735        7.0491954388
  H        11.1370103392       14.9801764165        7.8245926610
  C        11.1031880007        4.9329147325       17.8720029733
  H        11.0996188794        4.1575072973       18.6475777504
  C         0.3246978613       15.7596156332       17.8750752116
  H         0.3302740318       14.9848981128       18.6513096913
  C         0.2935170994        4.9440897824        7.0557206304
  H         0.2978747640        4.1690976865        7.8317582115
  C        11.1125755194        7.0521970595        7.0526126303
  H        11.1143071584        7.8277117243        7.8281557539
  C        11.1456948423       17.8715061223       17.8706648686
  H        11.1496954535       18.6470110761       18.6461567871
  C         0.2809760595        7.0582109171       17.8700704578
  H         0.2761226656        7.8347846616       18.6445021481
  C         0.3185835113       17.8774115549        7.0457904859
  H         0.3153415174       18.6530006370        7.8212708839
  C        15.4775885239       11.3908987532       15.7534082934
  H        14.7020736157       11.3952394094       14.9779220229
  C        15.4751272532        0.5661405277        4.9434818050
  H        14.6989930088        0.5622972134        4.1685409851
  C         4.6602718001       11.4240169334        4.9363169513
  H         3.8846966091       11.4264934311        4.1608335976
  C         4.6497257007        0.5952820149       15.7554921469
  H         3.8736014407        0.5901002881       14.9806004597
  C        15.4692270865       11.3902691287        7.0438591233
  H        14.6923923877       11.3926705008        7.8180260271
  C        15.4703098608        0.5623079069       17.8677403501
  H        14.6946821122        0.5567487410       18.6431651094
  C         4.6573768038       11.4247420722       17.8683913205
  H         3.8819180288       11.4289685571       18.6439872483
  C         4.6525010751        0.5979607351        7.0459940489
  H         3.8761080208        0.5936743479        7.8206213927
  C         6.7725385758       11.4155545606       15.7535081228
  H         7.5481940185       11.4116964663       14.9781587987
  C         6.7683378799        0.6068565068        4.9318537952
  H         7.5436140884        0.6111400167        4.1561036169
  C        17.5975671032       11.3836912716        4.9417958070
  H        18.3783573273       11.3805416347        4.1715676163
  C        17.5843454694        0.5732767524       15.7510925460
  H        18.3588786610        0.5784832236       14.9746349764
  C         6.7754079620       11.4180226355        7.0512725647
  H         7.5508919517       11.4158581232        7.8267918419
  C         6.7642160589        0.6059483310       17.8709760725
  H         7.5389039728        0.6113687347       18.6473159356
  C        17.5926959002       11.3814911350       17.8691879776
  H        18.3680126799       11.3769862672       18.6448961329
  C        17.5902416167        0.5740743990        7.0588484352
  H        18.3650160454        0.5776156189        7.8350804843
  C        15.4954316963       15.7377998460       11.4044201758
  H        14.7195349968       14.9626623719       11.4039431548
  C        15.4565406992        4.9134977468        0.5875756984
  H        14.6810007897        4.1380546021        0.5881562334
  C         4.6816869814       15.7794687139        0.5831748344
  H         3.9055759005       15.0044915326        0.5839413352
  C         4.6403157197        4.9550837870       11.4036125917
  H         3.8633198071        4.1810402146       11.4032527791
  C         6.7887667244       15.7731003557       11.4025637744
  H         7.5640938787       14.9973685965       11.4028448550
  C         6.7504104758        4.9621265009        0.5837406085
  H         7.5259748035        4.1865690666        0.5834790252
  C        17.6098388985       15.7278987172        0.5853423127
  H        18.3824778756       14.9495226932        0.5847852333
  C        17.5808652712        4.9236930939       11.4058559881
  H        18.3607857654        4.1526472996       11.4057054438
  C        15.4543147941        7.0263789198       11.4052477067
  H        14.6780337408        7.8010621541       11.4046078737
  C        15.5031625221       17.8512599625        0.5858068941
  H        14.7303743669       18.6295078227        0.5863270387
  C         4.6341179482        7.0760546142        0.5847063493
  H         3.8581999457        7.8511017613        0.5848856727
  C         4.6730759827       17.8881430379       11.4019883775
  H         3.8977183178       18.6638506390       11.4017007286
  C         6.7593839564        7.0662590891       11.4044717279
  H         7.5362824196        7.8403956083       11.4047939375
  C         6.7972961648       17.8943439169        0.5821071052
  H         7.5732193715       18.6694415613        0.5812911783
  C        17.5701248369        7.0297134852        0.5858142214
  H        18.3454054400        7.8054744336        0.5852142169
  C        17.6105548241       17.8527930320       11.4054646823
  H        18.3864478269       18.6279272770       11.4058279351
 Xe        17.9390224941        9.6756606943        9.7015599000
