     409
 i =      56, E =    -5133.8516431228
  N         2.9483437017        5.2996664276       15.9523454183
  C         1.6222148234        5.5380602136       16.2183016255
  N        13.7633216198        5.0740543295        5.0976914888
  C        12.4433544941        5.3258719195        5.3817400343
  N        19.5455749161       17.5326242788       15.9756498672
  C        20.8641469056       17.2968533053       16.2707998027
  N         8.7572459941       17.6057244287        5.2490792152
  C        10.0719838546       17.2995471017        5.4958497838
  N        19.6248711420        5.1569201533        6.7295322755
  C        20.9414585844        5.4616060208        6.4895428666
  N         8.7907239284        5.2231367213       17.6423700183
  C        10.1067574181        5.4293409819       17.3121161101
  N         2.8744622010       17.5998630316        6.7823092765
  C         1.5612952328       17.3071941757        6.5089768424
  N        13.7062599022       17.5846239614       17.5924661155
  C        12.3815970855       17.3323772856       17.3378251731
  N        15.9375783830        2.9582673438        5.1249496594
  C        16.1921745783        1.6420208427        5.4127125268
  N        15.7972529706       13.8313054787       16.0115573646
  C        16.0731454230       12.5108786530       16.2682288741
  N        15.8831412786       19.7056827485       17.5557906260
  C        16.1566153331       21.0195621164       17.2723606386
  N        15.8641045153        8.8131560507        6.6681095216
  C        16.1344390035       10.1346573273        6.4144215391
  N         6.5842568182       19.7645853770        5.2312370820
  C         6.3106457266       21.0825280345        5.4942338366
  N         6.5497148088        9.0024932902       16.0733661516
  C         6.2636654254       10.3199053625       16.3318670642
  N         6.6234217404        3.1325660846       17.5563315378
  C         6.3427137178        1.8182068988       17.2891319066
  N         6.5506830764       13.8923407268        6.8226809839
  C         6.2831288201       12.5776237579        6.5324149579
  N         5.0610365604       16.0601331653        3.0845814126
  C         5.3269634953       16.3423580208        1.7699466462
  N         5.2011392283        5.4107351853       13.8632454107
  C         5.4801417593        5.6706071474       12.5450641915
  N        17.4234053134       15.9728352348       19.7036533031
  C        17.1611902954       16.2379717785       21.0246885439
  N        17.4608646112        5.1082289408        8.8505017598
  C        17.1962447384        5.3937744102       10.1659780289
  N         5.0115425190        6.7844455844       19.7295846953
  C         5.2714090014        6.5004309596       21.0453025508
  N         5.0273133866       17.6319278131        8.9463067299
  C         5.3017879772       17.3761331870       10.2662951448
  N        17.4821830715        6.6831636562        2.9825602142
  C        17.2092886539        6.4238992420        1.6631161968
  N        17.3711975086       17.5237754154       13.8426166944
  C        17.0998978768       17.2446222893       12.5281147591
  N         5.0731729660        3.0983545425        6.7936265923
  C         5.3173996059        1.7741117427        6.5197832196
  N         4.9956605733       13.9584396625       17.6386228823
  C         5.2511991199       12.6398399329       17.3588099389
  N        17.4214219797       19.6448698577        6.7490446051
  C        17.1704046070       20.9623992005        6.4622306229
  N        17.4073535308        8.8713438676       17.5008125345
  C        17.1177730748       10.1872099014       17.2457724284
  N         5.0318858515       19.8177020666       16.0450536124
  C         5.3158043494       21.1370152990       16.2955829010
  N         5.0614896048        8.9517901905        5.1408350259
  C         5.3060893971       10.2662664630        5.4507658198
  N        17.4653425123        3.0062890582       15.9654438102
  C        17.1849504185        1.6898657218       16.2363493353
  N        17.4367030544       13.7879509430        5.1807917721
  C        17.1628453733       12.4674783605        5.4349018431
  N         2.8676808900       16.1114949702       17.6291616421
  C         1.5499046271       16.3497820094       17.3343031475
  N        13.7008106950       15.9192283667        6.7156900598
  C        12.3849259416       16.2158604509        6.4616585957
  N        19.5874052583       15.9575913875        5.1987269356
  C        20.9002680291       16.2479402410        5.4758351680
  N         8.7150442602       16.0890497197       16.0946463106
  C        10.0375766526       16.3436245642       16.3530812874
  N        19.5960542828        6.7464113394       17.5061850481
  C        20.9180010424        6.4991224849       17.2374833963
  N         8.8163689165        6.6409428959        6.6847098509
  C        10.1291268706        6.3385562358        6.4250236763
  N         2.9282272961        6.8108579846        5.2426203176
  C         1.6149790187        6.5210459825        5.5081167175
  N        13.7359312202        6.6172108707       15.9090741027
  C        12.4220893819        6.3485733930       16.1977082317
  N        15.9134266947        5.1561124389       19.6649179034
  C        16.1905637980        5.4199128866       20.9807896809
  N        15.8293415588       15.9351512208        8.8908338308
  C        16.0881709299       16.2153032710       10.2100761631
  N        15.8801086129       17.5020523564        3.0330863733
  C        16.1533214476       17.2419854113        1.7143954190
  N        15.9201902972        6.7184319266       13.7959549240
  C        16.1907198402        6.4388670019       12.4799012628
  N         6.5548031322        5.1873841914        3.0286435518
  C         6.2795148455        5.4635821308        1.7157557221
  N         6.5806667573       16.1179644643       13.9172127236
  C         6.3175679957       16.3825325992       12.5969620646
  N         6.5878482458       17.6675415397       19.7769596352
  C         6.3298427467       17.3832743074       21.0945451436
  N         6.7901172789        6.8931987363        8.8866858292
  C         6.5106548592        6.6439192064       10.2079325358
  N        19.5591882162       17.5007942933        6.7666694814
  C        20.8809852773       17.2561778228        6.4988139087
  N         8.7440427813       17.6628174262       17.6303564340
  C        10.0579883380       17.3700031284       17.3578451168
  N         2.9465175474        5.2840234636        6.8252261290
  C         1.6240618586        5.5207387557        6.5389197713
  N        13.7493967565        5.1368733466       17.5357176548
  C        12.4288245511        5.3878429031       17.2629538447
  N         2.8610055848       17.6591490950       16.0648153105
  C         1.5446173702       17.3607985436       16.3140587642
  N        13.7132415899       17.5017953809        5.1873995816
  C        12.3933897438       17.2500200682        5.4651907091
  N        19.6235820954        5.1921306054       15.9493731514
  C        20.9378069539        5.4877061787       16.2177610901
  N         8.7932298078        5.1354222161        5.0846556656
  C        10.1165474433        5.3568032879        5.3777383191
  N         6.5780387774       19.8221733553       17.6120976518
  C         6.3218040427       21.1385592663       17.3211893041
  N         6.6029070708        8.9344591471        6.7070499918
  C         6.3108511244       10.2555112870        6.4764771584
  N         6.5873680329        3.0731629887        5.1975071210
  C         6.3109580586        1.7615538195        5.4823169384
  N         6.5249712980       13.9570511338       16.0586482120
  C         6.2477489929       12.6409521117       16.3264578187
  N        15.9105677415        3.0167464100       17.5229255277
  C        16.1724171937        1.6985694649       17.2550981442
  N        15.8677365509       13.7733547488        6.7241588657
  C        16.1381413135       12.4575170320        6.4416650694
  N        15.8780924548       19.6456822776        5.1821579484
  C        16.1619534578       20.9624867644        5.4396252380
  N        15.8224927054        8.8648311051       15.9733878059
  C        16.0829958860       10.1854972630       16.2492021351
  N        17.4504196775        6.7287966287       19.6634482465
  C        17.1946121906        6.4466693910       20.9817314558
  N        17.3911919515       17.4848732455        8.8936347596
  C        17.1097019312       17.2249973811       10.2095529120
  N         5.0104277990        6.7537364692        3.0416705275
  C         5.2702167340        6.4849984805        1.7229272079
  N         5.0164540739       17.6631724462       13.9048727142
  C         5.2958493352       17.3918928689       12.5889228475
  N        17.4353370532       15.9457696751        3.0255811316
  C        17.1663333031       16.2235894229        1.7081957672
  N        17.4654045640        5.1513421725       13.8068512484
  C        17.1987673822        5.4154520207       12.4874149573
  N         5.0268391083       16.1165707141       19.7758987285
  C         5.3106849986       16.3709910709       21.0923139896
  N         5.2162035345        5.3464800018        8.9060116944
  C         5.4880051941        5.6360637194       10.2201733545
  N        17.4181859933       19.6876660949       15.9807915702
  C        17.1616652618       21.0083763380       16.2465124283
  N        17.4407026572        8.8309513962        5.1337035315
  C        17.1622257184       10.1455524040        5.4109439749
  N         5.1051936783        3.1420442744       15.9651746479
  C         5.3472689791        1.8207963714       16.2536979711
  N         5.0273741209       13.9085130323        5.2364255699
  C         5.2878192919       12.5881645219        5.4986634603
  N        17.4851036805        2.9619899239        6.6897882790
  C        17.2020128851        1.6434571517        6.4342856621
  N        17.3846721624       13.8245022653       17.5358560977
  C        17.1089876926       12.5081431856       17.2635305995
  N         5.0325797788       19.7713582159        6.7914033052
  C         5.3025513722       21.0892571775        6.5173932219
  N         5.0190440868        8.9967790779       17.6495383100
  C         5.2639690232       10.3163443651       17.3624386838
  N        19.6187405701        6.7054828168        5.1656635170
  C        20.9360814501        6.4698997631        5.4665368671
  N         8.7856524823        6.6973297278       16.0144600140
  C        10.1026672341        6.3903221760       16.2462906691
  N         2.9086977198        6.8273911762       17.5354491188
  C         1.5986459139        6.5391594217       17.2484467692
  N        13.7632577865        6.5832880427        6.6987192363
  C        12.4480949774        6.3063946584        6.4290918244
  N         2.9014880093       16.0536433418        5.2179121349
  C         1.5802068878       16.2978226168        5.4874860277
  N        13.6689268651       16.0196493219       16.0451842751
  C        12.3581722297       16.3099826049       16.3292670400
  N        19.5547365394       15.9810942328       17.5358387865
  C        20.8702581599       16.2842159135       17.2895745867
  N         8.7411255132       16.0186437196        6.7726757297
  C        10.0623422812       16.2633695349        6.4909824070
  N         6.6199942786       17.6108533000        3.0940614219
  C         6.3454252718       17.3547283404        1.7750491142
  N         6.7564658324        6.9781482293       13.8584606489
  C         6.4956713720        6.6864341350       12.5408340945
  N         6.5681505767        5.2290702029       19.7257264109
  C         6.2853565712        5.4834771538       21.0412171765
  N         6.5917008195       16.0847579418        8.9573746704
  C         6.3234804129       16.3661788371       10.2740901145
  N        15.8849610104       17.5461011299       19.7182019957
  C        16.1548052774       17.2629418999       21.0332768312
  N        15.9183146049        6.6751828516        8.8382408011
  C        16.1889117367        6.4174696851       10.1582075046
  N        15.9424520116        5.1115255749        2.9738668720
  C        16.2043818253        5.3976757779        1.6589247826
  N        15.7984187699       15.9851150676       13.8542224065
  C        16.0740933676       16.2392412968       12.5335279878
 Zn        14.4975433204       14.7140331115       14.7389896983
 Br        13.1735816151       13.4024094027       13.4290638147
 Zn        14.6535992227        3.7995248851        3.8104212919
 Br        13.3379214758        2.4874734064        2.4947181272
 Zn         3.7634894294       14.7680879776        3.9261608766
 Br         2.4584904866       13.4501199471        2.6054221571
 Zn         3.8831525606        4.0656480868       14.6578637061
 Br         2.5907729553        2.7713471089       13.3008634271
 Zn         8.0072397598        8.2091255348       14.9275563921
 Br         9.6848470517        9.7853035534       14.9047627728
 Zn         7.9023855008       18.9049132085        3.9601046952
 Br         9.2345244548       20.2034429506        2.6489255589
 Zn        18.7587058264        7.9838691249        3.8534271220
 Br        20.0619349463        9.3163647195        2.5474822696
 Zn        18.6810854855       18.8149336646       14.6739631015
 Br        20.0024858709       20.1158400715       13.3530605448
 Zn         7.8541647888       14.7701918146        8.0891885381
 Br         9.2330996197       13.5428244411        9.4197557533
 Zn         7.8937320259        3.9476509125       18.9017772123
 Br         9.1772722703        2.6037520133       20.2139354953
 Zn        18.6974689801       14.6736029393       18.8202058954
 Br        20.0187282038       13.3566358546       20.1247070136
 Zn        18.7674670645        3.8317883123        7.9932557241
 Br        20.0887892192        2.5193497625        9.3041965181
 Zn        14.5980642408        7.9225508002        7.9611279428
 Br        13.3060116202        9.2227068276        9.3158841122
 Zn        14.6052322676       18.8640618637       18.8750655625
 Br        13.3183812584       20.1917000365       20.2032086680
 Zn         3.7209463490        8.0951166043       18.8896609304
 Br         2.3751195252        9.3662541110       20.2135900687
 Zn         3.7274774815       18.9075865413        8.0681897645
 Br         2.4095547192       20.2334034856        9.3700422226
 Zn        14.5594992151       14.6247833675        8.0097871723
 Br        13.2579286551       13.2986139023        9.3268720358
 Zn        14.6165845099        3.8590368538       18.8256990629
 Br        13.2990247319        2.5513391853       20.1426943688
 Zn         3.7227000110       14.8271488467       18.9346419660
 Br         2.4085782469       13.5119542877       20.2489156928
 Zn         3.8641365945        4.0333390701        8.1142917917
 Br         2.5672125568        2.7454316293        9.4714181897
 Zn         8.0525516498        8.1092012166        7.8390341888
 Br         9.7080128655        9.6832069493        8.0430885633
 Zn         7.8781908604       18.9656993220       18.9105979344
 Br         9.2035674197       20.2665685657       20.2261229371
 Zn        18.7180634687        8.0332486490       18.7889089677
 Br        20.0159638941        9.3630008450       20.1055046803
 Zn        18.6898428317       18.7811452712        8.0582607146
 Br        20.0008194754       20.0982572282        9.3745317143
 Zn        14.5760484053        7.9630019226       14.6565120380
 Br        13.2656921749        9.2556300747       13.3116977884
 Zn        14.5816749672       18.7850133243        3.8946765188
 Br        13.2718746896       20.1093946361        2.5847001138
 Zn         3.7434973311        8.0739059089        3.8949383106
 Br         2.4103865144        9.3760804354        2.5892787527
 Zn         3.7246032434       18.9500831070       14.7697478362
 Br         2.4147363044       20.2744751036       13.4579228604
 Zn         7.8422412821       14.8198174102       14.8007684139
 Br         9.2027654945       13.5646067942       13.4781098220
 Zn         7.8534639595        3.8718605756        3.8384855414
 Br         9.1040528586        2.5160844016        2.5058278019
 Zn        18.7318060904       14.6626148273        3.8968939932
 Br        20.0596754439       13.3649379505        2.5784514293
 Zn        18.7674493586        3.8730677341       14.6771746135
 Br        20.0942310624        2.5516330058       13.3808755352
 Zn         5.8620048742        6.0739385762       16.8251624220
 Zn        16.6149870593       16.7639493905       16.7758285539
 Zn        16.6946827612        5.8870039978        5.9015358793
 Zn         5.8198893839       16.8345758542        6.0164561131
 Zn         5.8792943474        6.0141428575        5.9420070749
 Zn        16.6442418349       16.7108217011        5.9597248771
 Zn         5.7909095454       16.8923858583       16.8561987135
 Zn        16.6690474224        5.9394214061       16.7269501759
  N         3.6749725339        6.0759655887       16.7505850347
  N        14.5100704433        5.8367009603        5.8923350131
  N        18.8035834424       16.7399900171       16.7430937984
  N         8.0032129592       16.8286345056        6.0204555174
  N        18.8758107092        5.9124827175        5.9315053811
  N         8.0428476104        5.9924345397       16.8569968606
  N         3.6348038498       16.8382011309        6.0004350835
  N        14.4339599921       16.7921651858       16.8111537517
  N        16.7178261096        3.7064319090        5.8987647857
  N        16.5908966271       14.5745456929       16.7773811184
  N        16.6465984164       18.9495249739       16.7727937320
  N        16.6561503428        8.0751754685        5.8957539156
  N         5.8097803372       19.0213659609        6.0151913858
  N         5.7989172656        8.2536323065       16.8707115215
  N         5.8741657682        3.8842542630       16.7570368356
  N         5.7913910140       14.6477092404        6.0342099693
  N         5.8422053191       16.8291203439        3.8364125478
  N         5.9703633257        6.1979717657       14.6085461540
  N        16.6518384029       16.7640729376       18.9641768025
  N        16.6875192782        5.8844837374        8.0971227420
  N         5.7974948898        6.0156436449       18.9815712363
  N         5.8072686443       16.8512440360        8.2054197387
  N        16.7146208447        5.8905281196        3.7247934508
  N        16.5842910264       16.7610251703       14.5950302764
  N         5.8397749856        3.8321104738        5.9917005294
  N         5.7666545003       14.7051854179       16.8535900488
  N        16.6413929887       18.8981926095        5.9730657885
  N        16.6248350441        8.1218179307       16.7313247212
  N         5.7973535781       19.0739582408       16.8383305984
  N         5.8479674745        8.1973786709        5.9023494433
  N        16.6920040268        3.7579952838       16.7440925115
  N        16.6525766709       14.5270327645        5.9595863779
  N         3.6106556438       16.8998341231       16.8588311544
  N        14.4539267038       16.6993216563        5.9458274517
  N        18.8268017338       16.7182601189        5.9809535638
  N         7.9827155936       16.8860315383       16.8649708696
  N        18.8630392240        5.9569329371       16.7281127951
  N         8.0589335195        5.9140960466        5.8739272591
  N         3.6845012546        6.0601168084        6.0368814969
  N        14.4896667970        5.8834851652       16.7214199973
  N        16.6758213102        5.9470026579       18.9168523121
  N        16.6172119676       16.7050459164        8.1455043799
  N        16.6563601523       16.7194167109        3.7759695162
  N        16.6907488856        5.9381454379       14.5476220693
  N         5.7883462937        5.9695753928        3.7816483137
  N         5.7940246508       16.8916289688       14.6583738411
  N         5.8001044585       16.8993652204       19.0302859410
  N         6.0013086237        6.1064142903        8.1489273911
  C        11.1847705191       15.7723737171       15.7972226096
  H        11.1641691713       14.9914308421       15.0276396264
  C        11.2739305045        4.8043974028        4.8178925785
  H        11.2651597879        4.0528549570        4.0197631242
  C         0.4342378698       15.7265105513        4.9286056148
  H         0.4570869135       14.9561400325        4.1483289896
  C         0.4718055771        4.9694872456       15.6631847716
  H         0.4886110615        4.2009481498       14.8812636522
  C        11.2610416421        6.8744000914       15.6346100536
  H        11.2665618185        7.6205249535       14.8345179432
  C        11.2375733811       17.8339285925        4.9411062768
  H        11.2444460183       18.6235733470        4.1800811631
  C         0.4530138092        7.0413451288        4.9339209022
  H         0.4505410177        7.8092215879        4.1506137543
  C         0.3799013924       17.8773912274       15.7417223459
  H         0.3724178920       18.6514830157       14.9648933031
  C        11.2192584790       15.6782995279        7.0132197335
  H        11.2124926845       14.8888639051        7.7742720763
  C        11.2704248264        4.8805335885       17.8584615586
  H        11.2748662626        4.1437390296       18.6702500934
  C         0.3946838867       15.7700769102       17.8643825262
  H         0.4026137292       14.9980354429       18.6433596715
  C         0.4649080880        4.9497134180        7.0717309486
  H         0.4664831216        4.1822387853        7.8549729281
  C        11.2965453999        6.8405972791        7.0019252172
  H        11.3113950747        7.6016295503        7.7883439370
  C        11.2332447134       17.9046264199       17.8931188468
  H        11.2536833682       18.6857657034       18.6625828434
  C         0.4262283401        7.0642451410       17.7965683056
  H         0.4085428405        7.8326661949       18.5791635227
  C         0.3874153991       17.8278343136        7.0573072484
  H         0.3650993587       18.5993325815        7.8365052682
  C        15.5171490719       11.3499752387       15.7214589979
  H        14.7277426189       11.3542477363       14.9602978523
  C        15.6301977709        0.4829019624        4.8731784194
  H        14.8580672782        0.4835931669        4.0941719812
  C         4.7519465415       11.4341933511        4.9207794762
  H         3.9876382190       11.4457949698        4.1345883108
  C         4.7894584997        0.6566706902       15.7177770660
  H         4.0228876416        0.6509889654       14.9336698960
  C        15.5811028556       11.2906401104        6.9716613883
  H        14.7994272771       11.2834646724        7.7408715745
  C        15.6168866547        0.5465812669       17.8160242593
  H        14.8449097497        0.5582708552       18.5951176984
  C         4.7135315688       11.4760177442       17.9159975447
  H         3.9507388632       11.4732423033       18.7036968901
  C         4.7663838992        0.6148479693        7.0740147703
  H         4.0002199602        0.6172279963        7.8585119693
  C         6.7884104251       11.4841952570       15.7664739158
  H         7.5671288928       11.4931518520       14.9972384170
  C         6.8503032568        0.5985807813        4.9287901094
  H         7.6133070414        0.5957426660        4.1407246351
  C        17.7168481943       11.3120479503        4.8785104935
  H        18.4996136025       11.3194757670        4.1103448196
  C        17.7184173837        0.5216383003       15.6869363263
  H        18.4880480586        0.5099643875       14.9058136292
  C         6.8312514707       11.4111201644        7.0657389088
  H         7.6108712011       11.4041262889        7.8343101513
  C         6.8736121364        0.6606375657       17.8626328039
  H         7.6374588966        0.6668916714       18.6498509883
  C        17.6721164579       11.3459209810       17.7942407785
  H        18.4618862393       11.3421397704       18.5553264438
  C        17.7322696712        0.4824210743        7.0017172376
  H        18.5022856587        0.4813865677        7.7825523110
  C        15.5264437481       15.6829052860       11.3739490673
  H        14.7449173923       14.9136803251       11.3773841536
  C        15.6530310995        4.8531833548        0.4978737767
  H        14.8842113521        4.0709612496        0.4943823633
  C         4.7673410633       15.8076349305        0.6083695737
  H         3.9890159583       15.0348837170        0.6043375806
  C         4.9344263511        5.1078313971       11.3886148776
  H         4.1554764761        4.3344818353       11.3983352995
  C         6.8751087226       15.8303404661       11.4406142807
  H         7.6580160862       15.0625015013       11.4490305308
  C         6.8289080250        4.9181529649        0.5551055306
  H         7.6010294044        4.1390511499        0.5504120162
  C        17.7103802612       15.6785372904        0.5419078531
  H        18.4816571805       14.8988952352        0.5352183805
  C        17.7432548273        4.8511661126       11.3311854556
  H        18.5125650382        4.0696240278       11.3378450907
  C        15.6456582833        6.9830593998       11.3145075277
  H        14.8761700488        7.7644991929       11.3071668856
  C        15.6084385356       17.8057894652        0.5584062201
  H        14.8378894563       18.5862627636        0.5654174129
  C         4.7200791973        7.0438120285        0.5674513625
  H         3.9480507307        7.8228725395        0.5721965770
  C         4.7481289801       17.9320262482       11.4226062372
  H         3.9693482281       18.7041811797       11.4150500491
  C         7.0508076556        7.2048225226       11.3680420858
  H         7.8230964244        7.9795669122       11.3575068951
  C         6.8904416056       17.9164687342        0.6176865053
  H         7.6689219989       18.6889731761        0.6227029812
  C        17.7456503232        6.9915501608        0.5043891902
  H        18.5115524001        7.7764388316        0.5075751813
  C        17.6590470971       17.7803404836       11.3666442085
  H        18.4416191220       18.5489697907       11.3633169706
 Xe         9.1475940477       10.4178866233       11.4638543377
