     409
 i =      96, E =    -5186.5829925428
  N         2.8185696716        5.2055108179       16.0178084449
  C         1.5005895266        5.4770204052       16.2860353571
  N        13.6351888972        5.2037120454        5.2037138260
  C        12.3175998957        5.4741022471        5.4741054567
  N        19.5039314719       17.5732862905       16.0171519046
  C        20.8219339155       17.3017911158       16.2857218130
  N         8.6823943063       17.5758796702        5.2072684718
  C        10.0001223505       17.3042502083        5.4753445014
  N        19.4974198938        5.2042879453        6.7606689133
  C        20.8154040758        5.4766618359        6.4927792157
  N         8.6823927400        5.2072687595       17.5758787881
  C        10.0001219118        5.4753450432       17.3042489248
  N         2.8178722279       17.5740118544        6.7620043221
  C         1.5000947332       17.3021271892        6.4930676058
  N        13.6412196180       17.5729889854       17.5729888293
  C        12.3235488743       17.3033186039       17.3033189836
  N        15.7856643095        3.0465720254        5.2023665140
  C        16.0543066303        1.7287388201        5.4734549385
  N        15.7927218100       13.8650821992       16.0149480498
  C        16.0628376134       12.5478056358       16.2841595012
  N        15.7916952488       19.7297337378       17.5714907198
  C        16.0596361448       21.0475886364       17.2993923320
  N        15.7875064548        8.9111731233        6.7602457006
  C        16.0582398436       10.2282710087        6.4907808466
  N         6.5303001807       19.7332706990        5.2083576447
  C         6.2611577640       21.0511599237        5.4794265901
  N         6.5323596884        8.9131065122       16.0188473700
  C         6.2633165726       10.2305173104       16.2893914874
  N         6.5330398328        3.0508962876       17.5768530979
  C         6.2660428945        1.7327841687       17.3046713096
  N         6.5309818453       13.8679187981        6.7619320159
  C         6.2610021754       12.5505898016        6.4920115438
  N         4.9779445339       16.0200842236        3.0500097989
  C         5.2505079107       16.2882042888        1.7323038189
  N         4.9759606028        5.2054022920       13.8682441182
  C         5.2455011980        5.4755595511       12.5507505756
  N        17.3460617909       16.0141015028       19.7296237732
  C        17.0748103964       16.2825334444       21.0475503182
  N        17.3417982680        5.2034650826        8.9102992073
  C        17.0735746220        5.4742510240       10.2277913759
  N         4.9734598627        6.7633855195       19.7331647050
  C         5.2445801014        6.4948856373       21.0509540519
  N         4.9763782605       17.5748989850        8.9134315293
  C         5.2473544061       17.3054340964       10.2307886894
  N        17.3402732063        6.7590084490        3.0466052717
  C        17.0696077006        6.4900279783        1.7288105547
  N        17.3484586054       17.5706638061       13.8650563495
  C        17.0787440215       17.3002194552       12.5476055860
  N         4.9719698839        3.0498793779        6.7629366748
  C         5.2438219522        1.7321000294        6.4946872920
  N         4.9787324176       13.8683823445       17.5760749876
  C         5.2484270729       12.5508573497       17.3060073274
  N        17.3406777253       19.7299671450        6.7586445060
  C        17.0697068545       21.0477947614        6.4898027625
  N        17.3443995311        8.9100844293       17.5722674468
  C        17.0767677295       10.2276729852       17.3009610288
  N         4.9794190325       19.7331910969       16.0197414595
  C         5.2512133766       21.0510382896       16.2880094288
  N         4.9739301686        8.9134131826        5.2066633140
  C         5.2445669217       10.2308043997        5.4762047534
  N        17.3454261421        3.0469100400       16.0138357067
  C        17.0745943482        1.7289397581       16.2823678501
  N        17.3456733139       13.8649457068        5.2050322671
  C        17.0754578068       12.5475497129        5.4749402353
  N         2.8214930356       16.0186901402       17.5750260167
  C         1.5036253261       16.2863569614       17.3024249678
  N        13.6378700942       16.0154476555        6.7587056930
  C        12.3205191159       16.2860031263        6.4891330722
  N        19.5010157610       16.0169555637        5.2047932562
  C        20.8188733840       16.2858033008        5.4767218006
  N         8.6848113165       16.0188683049       16.0188674281
  C        10.0024375926       16.2882762572       16.2882764569
  N        19.5001450734        6.7601186336       17.5741264497
  C        20.8182957613        6.4923614981       17.3023573678
  N         8.6804994226        6.7608919161        6.7608926311
  C         9.9977620473        6.4905612555        6.4905639975
  N         2.8151277060        6.7631743677        5.2068961458
  C         1.4972123163        6.4938801015        5.4778188489
  N        13.6378689173        6.7587056737       16.0154484795
  C        12.3205195528        6.4891334117       16.2860028903
  N        15.7865967755        5.2013491622       19.7297860391
  C        16.0545911568        5.4729393489       21.0476701100
  N        15.7898586381       16.0156811555        8.9110611012
  C        16.0613089938       16.2845269045       10.2281966827
  N        15.7905991909       17.5705802575        3.0464185365
  C        16.0592423418       17.2989622684        1.7286924590
  N        15.7902540054        6.7609268551       13.8649891173
  C        16.0596832252        6.4911009453       12.5477732474
  N         6.5276545532        5.2072420750        3.0503106696
  C         6.2599778019        5.4789256901        1.7323896644
  N         6.5340123715       16.0197146417       13.8681361347
  C         6.2641671441       16.2897757504       12.5507192695
  N         6.5353964815       17.5761036254       19.7332392993
  C         6.2670588759       17.3042720920       21.0511467828
  N         6.5296575676        6.7627680133        8.9133082090
  C         6.2603147798        6.4924436093       10.2306118426
  N        19.5001449162       17.5741248019        6.7601190404
  C        20.8182993872       17.3023546501        6.4923628373
  N         8.6856204295       17.5746683750       17.5746670227
  C        10.0031132335       17.3042390396       17.3042388676
  N         2.8151286715        5.2068964200        6.7631739931
  C         1.4972118434        5.4778190570        6.4938797772
  N        13.6381534497        5.2022169445       17.5713809320
  C        12.3205879038        5.4730826799       17.3020551284
  N         2.8214934552       17.5750277504       16.0186890346
  C         1.5036243717       17.3024263812       16.2863559346
  N        13.6381550864       17.5713805993        5.2022170278
  C        12.3205897869       17.3020556473        5.4730824463
  N        19.5010139043        5.2047926267       16.0169569611
  C        20.8188739035        5.4767205164       16.2858060666
  N         8.6790595988        5.2050806761        5.2050817253
  C         9.9969491624        5.4745916997        5.4745946662
  N         6.5353960962       19.7332419881       17.5761020998
  C         6.2670581979       21.0511471062       17.3042711830
  N         6.5296569072        8.9133077020        6.7627685797
  C         6.2603126533       10.2306149649        6.4924449487
  N         6.5276550123        3.0503113838        5.2072418084
  C         6.2599789145        1.7323914002        5.4789253707
  N         6.5340132995       13.8681371607       16.0197148929
  C         6.2641689007       12.5507205627       16.2897769229
  N        15.7905978077        3.0464194372       17.5705799652
  C        16.0592409157        1.7286942658       17.2989618618
  N        15.7902549564       13.8649891172        6.7609290202
  C        16.0596859964       12.5477704795        6.4911030751
  N        15.7865975289       19.7297860170        5.2013482893
  C        16.0545911413       21.0476708353        5.4729396901
  N        15.7898583792        8.9110618384       16.0156825917
  C        16.0613077875       10.2281955651       16.2845278654
  N        17.3406758843        6.7586447363       19.7299669339
  C        17.0697066604        6.4898024496       21.0477942630
  N        17.3444011507       17.5722670098        8.9100829715
  C        17.0767692294       17.3009602315       10.2276740452
  N         4.9719691568        6.7629369997        3.0498781368
  C         5.2438207342        6.4946876780        1.7321000330
  N         4.9787318853       17.5760750890       13.8683809642
  C         5.2484256686       17.3060062325       12.5508566199
  N        17.3454282053       16.0138351666        3.0469081845
  C        17.0745959521       16.2823680360        1.7289380182
  N        17.3456705065        5.2050323337       13.8649455601
  C        17.0754545947        5.4749387552       12.5475523510
  N         4.9794194718       16.0197431484       19.7331903807
  C         5.2512140544       16.2880103602       21.0510338422
  N         4.9739311734        5.2066623867        8.9134105691
  C         5.2445692293        5.4762031702       10.2308074037
  N        17.3460609476       19.7296252698       16.0141010513
  C        17.0748092052       21.0475499434       16.2825327791
  N        17.3418005153        8.9102994517        5.2034644139
  C        17.0735776860       10.2277940158        5.4742522077
  N         4.9779423589        3.0500100568       16.0200832281
  C         5.2505062023        1.7323065713       16.2882035119
  N         4.9759611152       13.8682472166        5.2054029477
  C         5.2454999208       12.5507499880        5.4755613318
  N        17.3402722418        3.0466048180        6.7590096673
  C        17.0696069624        1.7288096159        6.4900291550
  N        17.3484581411       13.8650578382       17.5706629137
  C        17.0787427493       12.5476072430       17.3002194290
  N         4.9734617535       19.7331655960        6.7633834822
  C         5.2445815984       21.0509523586        6.4948846999
  N         4.9763772652        8.9134328819       17.5748993028
  C         5.2473553026       10.2307914387       17.3054350157
  N        19.4974193415        6.7606692904        5.2042877331
  C        20.8154061815        6.4927792644        5.4766619287
  N         8.6828192239        6.7617010962       16.0188605029
  C        10.0002382257        6.4906687806       16.2876742679
  N         2.8178718108        6.7620050539       17.5740123138
  C         1.5000921031        6.4930664340       17.3021288209
  N        13.6354732493        6.7599860441        6.7599873681
  C        12.3180874063        6.4901501477        6.4901531264
  N         2.8185723256       16.0178087178        5.2055105911
  C         1.5005898379       16.2860336103        5.4770214060
  N        13.6400146297       16.0168117094       16.0168119648
  C        12.3227658018       16.2872739310       16.2872746884
  N        19.5039309965       16.0171521935       17.5732852751
  C        20.8219354865       16.2857227561       17.3017897244
  N         8.6828203840       16.0188619125        6.7616999425
  C        10.0002394509       16.2876751418        6.4906683419
  N         6.5330413947       17.5768534763        3.0508937691
  C         6.2660446231       17.3046721550        1.7327837840
  N         6.5309820244        6.7619324218       13.8679188279
  C         6.2610033132        6.4920099138       12.5505862750
  N         6.5302986936        5.2083591271       19.7332702218
  C         6.2611560590        5.4794276343       21.0511588261
  N         6.5323598380       16.0188478321        8.9131054238
  C         6.2633157122       16.2893903664       10.2305154423
  N        15.7916960298       17.5714910419       19.7297332755
  C        16.0596372067       17.2993930408       21.0475875819
  N        15.7875058566        6.7602447495        8.9111730059
  C        16.0582373359        6.4907790627       10.2282681644
  N        15.7856652517        5.2023653710        3.0465729643
  C        16.0543074569        5.4734538234        1.7287391298
  N        15.7927216684       16.0149480438       13.8650813516
  C        16.0628385522       16.2841590453       12.5478026127
 Zn        14.4989511666       14.7224561275       14.7224555737
 Cl        13.2650165388       13.4910168692       13.4910163129
 Zn        14.4960666828        3.9085728411        3.9085740778
 Cl        13.2551099420        2.6805710777        2.6805719079
 Zn         3.6836455305       14.7270465361        3.9098869779
 Cl         2.4544093157       13.4918046635        2.6776006826
 Zn         3.6836452551        3.9098893168       14.7270459564
 Cl         2.4544087008        2.6776024565       13.4918056655
 Zn         7.8263404751        8.0548805578       14.7242669955
 Cl         9.0575935944        9.2869604965       13.4909666642
 Zn         7.8231175589       18.8717534272        3.9150014441
 Cl         9.0601809269       20.1040048230        2.6874038838
 Zn        18.6312201571        8.0512824765        3.9078990671
 Cl        19.8627205434        9.2859806214        2.6768584148
 Zn        18.6402279528       18.8668397741       14.7237998350
 Cl        19.8712338213       20.0934676468       13.4845545433
 Zn         7.8263404112       14.7242676232        8.0548784091
 Cl         9.0575938408       13.4909681753        9.2869591737
 Zn         7.8231156765        3.9150041690       18.8717539621
 Cl         9.0601788875        2.6874055051       20.1040039696
 Zn        18.6402283974       14.7237999140       18.8668388298
 Cl        19.8712339802       13.4845546701       20.0934664862
 Zn        18.6312194934        3.9079002819        8.0512822420
 Cl        19.8627195875        2.6768590907        9.2859818122
 Zn        14.4958118768        8.0540678872        8.0540680711
 Cl        13.2638755482        9.2865724855        9.2865719844
 Zn        14.5022660410       18.8676089837       18.8676091764
 Cl        13.2662317112       20.0979347378       20.0979347039
 Zn         3.6814808837        8.0545321953       18.8686747229
 Cl         2.4485411540        9.2930481900       20.0940917066
 Zn         3.6814823061       18.8686745497        8.0545296485
 Cl         2.4485423743       20.0940915360        9.2930466138
 Zn        14.4974093231       14.7222195581        8.0539202666
 Cl        13.2643335620       13.4904965213        9.2859956773
 Zn        14.4990805043        3.9063218968       18.8652066789
 Cl        13.2604411497        2.6729097309       20.0900064474
 Zn         3.6852845656       14.7272844036       18.8707158050
 Cl         2.4547177432       13.4912051567       20.1007632932
 Zn         3.6800461076        3.9125232436        8.0547491018
 Cl         2.4484172033        2.6848099883        9.2924516803
 Zn         7.8251429709        8.0549736885        8.0549750415
 Cl         9.0573327637        9.2872155924        9.2872155356
 Zn         7.8281959418       18.8696763039       18.8696735348
 Cl         9.0679552472       20.0980977670       20.0980967043
 Zn        18.6325191975        8.0508672251       18.8693584323
 Cl        19.8630337321        9.2862467697       20.1007116481
 Zn        18.6325205893       18.8693597170        8.0508668707
 Cl        19.8630350056       20.1007109271        9.2862466292
 Zn        14.4974099250        8.0539198452       14.7222202082
 Cl        13.2643325374        9.2859963288       13.4904964769
 Zn        14.4990805833       18.8652071421        3.9063205591
 Cl        13.2604408445       20.0900064314        2.6729084904
 Zn         3.6800471766        8.0547496304        3.9125244375
 Cl         2.4484172399        9.2924508883        2.6848104869
 Zn         3.6852840589       18.8707168528       14.7272816563
 Cl         2.4547176163       20.1007645335       13.4912026484
 Zn         7.8279103937       14.7247512950       14.7247509504
 Cl         9.0582237842       13.4915950630       13.4915948739
 Zn         7.8163705491        3.9111954030        3.9111948925
 Cl         9.0520098819        2.6804379966        2.6804381794
 Zn        18.6385489488       14.7234810613        3.9104445359
 Cl        19.8704976731       13.4851104690        2.6838321469
 Zn        18.6385464413        3.9104460663       14.7234803474
 Cl        19.8704974204        2.6838323057       13.4851119510
 Zn         5.7472525293        5.9871389574       16.7995955236
 Zn        16.5666891550       16.7937935762       16.7937920673
 Zn        16.5617367370        5.9820138033        5.9820121123
 Zn         5.7472539751       16.7995990775        5.9871370007
 Zn         5.7447405045        5.9872072928        5.9872052784
 Zn        16.5640382101       16.7933998852        5.9813886533
 Zn         5.7506831662       16.8004757256       16.8004724831
 Zn        16.5640364221        5.9813880490       16.7934026431
  N         3.5645194094        5.9830531999       16.7969663916
  N        14.3816019531        5.9817921743        5.9817927390
  N        18.7573387587       16.7960645885       16.7960621657
  N         7.9358821795       16.7981062865        5.9853601470
  N        18.7509600069        5.9812323248        5.9812341381
  N         7.9358795338        5.9853612352       16.7981048518
  N         3.5645202416       16.7969689036        5.9830534630
  N        14.3868783433       16.7946756517       16.7946753608
  N        16.5635767344        3.7933473146        5.9801427350
  N        16.5703094465       14.6115204085       16.7931604907
  N        16.5698134142       18.9829884253       16.7938143075
  N        16.5639518188        8.1642137604        5.9815139310
  N         5.7511864342       18.9865862012        5.9851545303
  N         5.7537744847        8.1669455340       16.7965030311
  N         5.7538297660        3.7971419212       16.7996668586
  N         5.7535522125       14.6146674624        5.9836870430
  N         5.7538333095       16.7996691402        3.7971398539
  N         5.7535487669        5.9836853462       14.6146668529
  N        16.5698130445       16.7938154954       18.9829872331
  N        16.5639512932        5.9815143135        8.1642161760
  N         5.7511858791        5.9851555037       18.9865840990
  N         5.7537755409       16.7965041471        8.1669458050
  N        16.5635775475        5.9801414816        3.7933479469
  N        16.5703100823       16.7931622740       14.6115202521
  N         5.7486308955        3.7968560107        5.9840779098
  N         5.7563717134       14.6148466089       16.7978505037
  N        16.5645082569       18.9831221453        5.9792551695
  N        16.5660327842        8.1640622834       16.7946871892
  N         5.7563123569       18.9866724477       16.7990235574
  N         5.7513887028        8.1670220367        5.9850425921
  N        16.5685973038        3.7933104672       16.7930950186
  N        16.5680302693       14.6114213677        5.9830017145
  N         3.5678125484       16.7983041649       16.7983037160
  N        14.3842552793       16.7930646925        5.9801705586
  N        18.7540649312       16.7963664734        5.9812809955
  N         7.9385500221       16.7969887922       16.7969870213
  N        18.7540639115        5.9812831154       16.7963693660
  N         7.9331211552        5.9832652016        5.9832649469
  N         3.5614415373        5.9846045782        5.9846029091
  N        14.3842536947        5.9801722153       16.7930638587
  N        16.5645070131        5.9792568131       18.9831230586
  N        16.5660338105       16.7946867572        8.1640591113
  N        16.5685987291       16.7930950370        3.7933097357
  N        16.5680284074        5.9830018808       14.6114182565
  N         5.7486297485        5.9840791184        3.7968549478
  N         5.7563713968       16.7978511854       14.6148452716
  N         5.7563104339       16.7990233855       18.9866709585
  N         5.7513920496        5.9850456399        8.1670205111
  C        11.1621167091       15.7371995282       15.7372005680
  H        11.1615096984       14.9615921319       14.9615934084
  C        11.1570133310        4.9239716247        4.9239755185
  H        11.1568385383        4.1484507862        4.1484548216
  C         0.3398587643       15.7349932115        4.9274848212
  H         0.3401097911       14.9588600594        4.1525062153
  C         0.3398573045        4.9274835206       15.7349961961
  H         0.3401085274        4.1525049379       14.9588631316
  C        11.1603172984        7.0401861806       15.7359737729
  H        11.1602816140        7.8155725678       14.9601517808
  C        11.1602932808       17.8535844733        4.9238086516
  H        11.1602846895       18.6292365880        4.1484028783
  C         0.3363393481        7.0439783765        4.9276269009
  H         0.3366743600        7.8197341368        4.1522995207
  C         0.3427778075       17.8514421311       15.7350556273
  H         0.3429609907       18.6263341701       14.9588546975
  C        11.1603172468       15.7359745402        7.0401855386
  H        11.1602822115       14.9601525725        7.8155717292
  C        11.1602922956        4.9238090509       17.8535833046
  H        11.1602825961        4.1484031690       18.6292354611
  C         0.3427783508       15.7350564923       17.8514405345
  H         0.3429614879       14.9588554235       18.6263324516
  C         0.3363390217        4.9276266193        7.0439783856
  H         0.3366743656        4.1522991300        7.8197341288
  C        11.1580697607        7.0409176224        7.0409211523
  H        11.1583067515        7.8165240997        7.8165276297
  C        11.1637080590       17.8541952367       17.8541954433
  H        11.1642429939       18.6297193622       18.6297192831
  C         0.3390914793        7.0433819165       17.8518272834
  H         0.3393641755        7.8192434191       18.6270301841
  C         0.3390935980       17.8518245853        7.0433835976
  H         0.3393653907       18.6270274090        7.8192452753
  C        15.5116813210       11.3882413932       15.7332416243
  H        14.7360488988       11.3885577693       14.9576568790
  C        15.5039228373        0.5682853121        4.9230599457
  H        14.7283633589        0.5686957828        4.1475341087
  C         4.6946259576       11.3908410331        4.9251921151
  H         3.9191169543       11.3907801351        4.1496175827
  C         4.7015338518        0.5715840488       15.7370060244
  H         3.9264766402        0.5716119790       14.9609478453
  C        15.5082670834       11.3882509789        7.0418439898
  H        14.7324280344       11.3885602651        7.8172184573
  C        15.5088534732        0.5681696065       17.8491358376
  H        14.7331856549        0.5685006882       18.6245777087
  C         4.6974555977       11.3909429107       17.8562810319
  H         3.9217170225       11.3909588002       18.6316070593
  C         4.6941791727        0.5714532467        7.0453706249
  H         3.9185349662        0.5714776660        7.8208120654
  C         6.8143693524       11.3905136528       15.7389419684
  H         7.5897666395       11.3902633735       14.9631234763
  C         6.8116797527        0.5719500921        4.9296852852
  H         7.5879225426        0.5722450576        4.1547954876
  C        17.6250330919       11.3873932132        4.9237984524
  H        18.4001938291       11.3869905026        4.1478827157
  C        17.6240490216        0.5682908260       15.7311898793
  H        18.3987865369        0.5684570798       14.9548204020
  C         6.8110212700       11.3905456984        7.0432250951
  H         7.5860020176       11.3903897324        7.8194531413
  C         6.8172970523        0.5721468076       17.8541689638
  H         7.5928993911        0.5724034987       18.6296588130
  C        17.6285186539       11.3873459924       17.8510460955
  H        18.4038656972       11.3869263495       18.6267753637
  C        17.6192223636        0.5682919402        7.0410920535
  H        18.3941187918        0.5683794248        7.8173378839
  C        15.5116836127       15.7332412834       11.3882412370
  H        14.7360509284       14.9576561132       11.3885570577
  C        15.5039231273        4.9230587904        0.5682849511
  H        14.7283636055        4.1475329378        0.5686957182
  C         4.7015348225       15.7370065335        0.5715818030
  H         3.9264775889       14.9609483788        0.5716101758
  C         4.6946285400        4.9251902502       11.3908407652
  H         3.9191195414        4.1496155674       11.3907790313
  C         6.8143676317       15.7389403596       11.3905120787
  H         7.5897647199       14.9631219197       11.3902625256
  C         6.8116781653        4.9296859265        0.5719491089
  H         7.5879210367        4.1547960719        0.5722429513
  C        17.6240503504       15.7311907968        0.5682893242
  H        18.3987880645       14.9548214595        0.5684556261
  C        17.6250306811        4.9237950477       11.3873935352
  H        18.4001907713        4.1478798538       11.3869903525
  C        15.5082622286        7.0418426612       11.3882513942
  H        14.7324235347        7.8172162512       11.3885601999
  C        15.5088550722       17.8491363072        0.5681684524
  H        14.7331872900       18.6245782503        0.5684999610
  C         4.6941779597        7.0453709531        0.5714538209
  H         3.9185337031        7.8208124110        0.5714779931
  C         4.6974538317       17.8562800757       11.3909408810
  H         3.9217154437       18.6316060899       11.3909571345
  C         6.8110232504        7.0432233000       11.3905441483
  H         7.5860040302        7.8194515079       11.3903885271
  C         6.8172983351       17.8541698355        0.5721452106
  H         7.5929006274       18.6296596967        0.5724015020
  C        17.6192230162        7.0410915445        0.5682916211
  H        18.3941193813        7.8173374258        0.5683798166
  C        17.6285197382       17.8510445334       11.3873457210
  H        18.4038672929       18.6267739938       11.3869252383
 Kr        20.5362551311       10.7295033439       10.7295035157
