     409
 i =      96, E =    -5186.5839216509
  N         3.0143127062        5.2067945488       16.0201499540
  C         1.6959950189        5.4779946564       16.2876680117
  N        13.8247886007        5.2041693461        5.2041716840
  C        12.5073703921        5.4748661070        5.4748679529
  N        19.6987749136       17.5724961166       16.0159569989
  C        21.0168695680       17.3019868692       16.2858607477
  N         8.8739271009       17.5758202328        5.2071847656
  C        10.1916378052       17.3041647128        5.4755730099
  N        19.6911640311        5.2032619769        6.7596268392
  C        21.0090515511        5.4765688216        6.4926538963
  N         8.8739280678        5.2071835665       17.5758207851
  C        10.1916378225        5.4755726766       17.3041640034
  N         3.0124872032       17.5764211843        6.7634439854
  C         1.6947112191       17.3038026031        6.4941137033
  N        13.8353726148       17.5733034554       17.5733035957
  C        12.5172799724       17.3038426910       17.3038425866
  N        15.9751082004        3.0466452800        5.2033060980
  C        16.2441179011        1.7288209333        5.4749056255
  N        15.9847264960       13.8646362928       16.0155441054
  C        16.2536765764       12.5472024616       16.2856969288
  N        15.9864486777       19.7294227694       17.5713033482
  C        16.2525081830       21.0474330719       17.2986944718
  N        15.9779455336        8.9101720409        6.7589319712
  C        16.2476302494       10.2274228796        6.4884538812
  N         6.7234695868       19.7354118554        5.2079352024
  C         6.4536410839       21.0530095093        5.4786352676
  N         6.7235743233        8.9144209193       16.0188194239
  C         6.4538256865       10.2316796718       16.2881994411
  N         6.7239887327        3.0516161884       17.5779462272
  C         6.4573369167        1.7336679053       17.3057426947
  N         6.7194040835       13.8680665437        6.7664396733
  C         6.4476118924       12.5509947260        6.4982230987
  N         5.1709908743       16.0199373207        3.0508037675
  C         5.4427460330       16.2884531486        1.7331358975
  N         5.1666384047        5.2088473300       13.8691258415
  C         5.4332006478        5.4808365876       12.5515495140
  N        17.5401482059       16.0139135753       19.7303531923
  C        17.2675011108       16.2817973337       21.0480718256
  N        17.5331401986        5.2026353084        8.9095991605
  C        17.2632979102        5.4722100112       10.2270736184
  N         5.1691373984        6.7648045302       19.7345406143
  C         5.4384421756        6.4954119954       21.0524713405
  N         5.1698423320       17.5762678919        8.9146846392
  C         5.4391215336       17.3053980763       10.2319705371
  N        17.5316742139        6.7586248246        3.0471830674
  C        17.2604514460        6.4905666828        1.7293578035
  N        17.5401263754       17.5714756042       13.8642946525
  C        17.2695045116       17.3018110936       12.5469109168
  N         5.1653226280        3.0510352144        6.7642617943
  C         5.4363877001        1.7333193422        6.4952269000
  N         5.1722838903       13.8690560126       17.5764336449
  C         5.4402614094       12.5515228586       17.3054562230
  N        17.5355060803       19.7307215337        6.7590499744
  C        17.2625721786       21.0482812130        6.4908777618
  N        17.5371102120        8.9095316830       17.5725616091
  C        17.2679966869       10.2270281249       17.3022613977
  N         5.1743849333       19.7343636015       16.0192665021
  C         5.4445930796       21.0522259161       16.2881472568
  N         5.1633709232        8.9147373696        5.2093890528
  C         5.4315721293       10.2320525708        5.4811294585
  N        17.5367195904        3.0472285917       16.0141190261
  C        17.2655996151        1.7292539709       16.2819392088
  N        17.5362689024       13.8643133274        5.2037196859
  C        17.2648549576       12.5469453968        5.4726351620
  N         3.0172891224       16.0206920513       17.5772590402
  C         1.6992093463       16.2881240692       17.3042588658
  N        13.8299949226       16.0164723895        6.7590865707
  C        12.5124567490       16.2866905850        6.4894471061
  N        19.6960812802       16.0159636476        5.2039505429
  C        21.0138245613       16.2855405907        5.4763257184
  N         8.8773641730       16.0191743539       16.0191729540
  C        10.1951843252       16.2887898781       16.2887892406
  N        19.6943565539        6.7594859476       17.5733593455
  C        21.0126173299        6.4919962804       17.3020876502
  N         8.8708641364        6.7631509126        6.7631511281
  C        10.1880650017        6.4924600005        6.4924608044
  N         3.0088088562        6.7644410175        5.2081929336
  C         1.6908346858        6.4950824471        5.4789848491
  N        13.8299940857        6.7590869763       16.0164722197
  C        12.5124579841        6.4894460782       16.2866912611
  N        15.9804509374        5.2027404534       19.7292330601
  C        16.2467432533        5.4747500186       21.0474284993
  N        15.9821517160       16.0160844565        8.9101270016
  C        16.2523711841       16.2859622175       10.2273887607
  N        15.9817535151       17.5706607263        3.0463635219
  C        16.2501534345       17.2984671222        1.7286241409
  N        15.9805520586        6.7594355338       13.8647342724
  C        16.2489388257        6.4886964042       12.5472827876
  N         6.7192283135        5.2071540680        3.0516498148
  C         6.4514020813        5.4783629055        1.7338262289
  N         6.7250985176       16.0186935304       13.8683955573
  C         6.4547066926       16.2880701787       12.5511606212
  N         6.7279890285       17.5769916737       19.7349612430
  C         6.4594176379       17.3053082114       21.0526747574
  N         6.7172835102        6.7665363160        8.9147209424
  C         6.4463240680        6.4982900428       10.2318479077
  N        19.6943592434       17.5733571046        6.7594860126
  C        21.0126161857       17.3020853485        6.4919949411
  N         8.8784128052       17.5756081511       17.5756066779
  C        10.1960166175       17.3048848915       17.3048840423
  N         3.0088094192        5.2081915012        6.7644423725
  C         1.6908329887        5.4789858064        6.4950813559
  N        13.8303388387        5.2030288102       17.5724879100
  C        12.5125328411        5.4735900570       17.3028840055
  N         3.0172893602       17.5772597595       16.0206917456
  C         1.6992101463       17.3042601272       16.2881231929
  N        13.8303401308       17.5724885012        5.2030283466
  C        12.5125297722       17.3028844695        5.4735902202
  N        19.6960784593        5.2039488457       16.0159647531
  C        21.0138259732        5.4763247122       16.2855408859
  N         8.8691385915        5.2070286953        5.2070295491
  C        10.1869281014        5.4764247149        5.4764259024
  N         6.7279884307       19.7349613661       17.5769891612
  C         6.4594148838       21.0526747213       17.3053082587
  N         6.7172772330        8.9147190919        6.7665345184
  C         6.4463269616       10.2318492355        6.4982844582
  N         6.7192301491        3.0516492975        5.2071535054
  C         6.4514070119        1.7338254892        5.4783630057
  N         6.7251013195       13.8683977686       16.0186915482
  C         6.4547023159       12.5511596826       16.2880642384
  N        15.9817523066        3.0463630541       17.5706602485
  C        16.2501511277        1.7286259972       17.2984669171
  N        15.9805531743       13.8647333522        6.7594362427
  C        16.2489402006       12.5472823518        6.4886963379
  N        15.9804515099       19.7292323959        5.2027399039
  C        16.2467448916       21.0474288800        5.4747510669
  N        15.9821508906        8.9101264125       16.0160849794
  C        16.2523696180       10.2273885051       16.2859617027
  N        17.5355054798        6.7590506523       19.7307218790
  C        17.2625712249        6.4908774786       21.0482831827
  N        17.5371101139       17.5725602327        8.9095322594
  C        17.2679969331       17.3022606959       10.2270267218
  N         5.1653235521        6.7642599284        3.0510352339
  C         5.4363848065        6.4952249192        1.7333223901
  N         5.1722855785       17.5764316532       13.8690543238
  C         5.4402681642       17.3054602657       12.5515227472
  N        17.5367215285       16.0141182182        3.0472282885
  C        17.2656020041       16.2819388943        1.7292527903
  N        17.5362677786        5.2037192952       13.8643145491
  C        17.2648544148        5.4726345813       12.5469458849
  N         5.1743843529       16.0192682096       19.7343633906
  C         5.4445948742       16.2881463353       21.0522257729
  N         5.1633681787        5.2093816133        8.9147393074
  C         5.4315675528        5.4811332455       10.2320521740
  N        17.5401483679       19.7303542358       16.0139129079
  C        17.2674997855       21.0480718616       16.2817968498
  N        17.5331404886        8.9095975246        5.2026351942
  C        17.2632985005       10.2270741637        5.4722098768
  N         5.1709902531        3.0508059685       16.0199391603
  C         5.4427427167        1.7331374422       16.2884548048
  N         5.1666354438       13.8691284343        5.2088475951
  C         5.4332020281       12.5515443393        5.4808291472
  N        17.5316735073        3.0471833518        6.7586256441
  C        17.2604519843        1.7293565337        6.4905679238
  N        17.5401262725       13.8642938799       17.5714745460
  C        17.2695038769       12.5469120871       17.3018103218
  N         5.1691385024       19.7345409800        6.7648048992
  C         5.4384470855       21.0524704097        6.4954122623
  N         5.1698455317        8.9146861595       17.5762658868
  C         5.4391175038       10.2319691000       17.3053916512
  N        19.6911641765        6.7596261383        5.2032629031
  C        21.0090509016        6.4926541806        5.4765687357
  N         8.8742910747        6.7617858677       16.0178872369
  C        10.1917816050        6.4908064346       16.2872850722
  N         3.0124873201        6.7634432164       17.5764189580
  C         1.6947117317        6.4941139892       17.3038020282
  N        13.8260987727        6.7599837679        6.7599858582
  C        12.5083556332        6.4908390312        6.4908406608
  N         3.0143120791       16.0201473174        5.2067904022
  C         1.6959935335       16.2876665459        5.4779924927
  N        13.8335607590       16.0171270751       16.0171276499
  C        12.5161861357       16.2878059837       16.2878062053
  N        19.6987749767       16.0159569023       17.5724954347
  C        21.0168696953       16.2858608800       17.3019862846
  N         8.8742906662       16.0178878174        6.7617853333
  C        10.1917826072       16.2872858023        6.4908063508
  N         6.7239894895       17.5779452395        3.0516151609
  C         6.4573396877       17.3057408804        1.7336686424
  N         6.7194046210        6.7664373533       13.8680629109
  C         6.4476061212        6.4982263230       12.5510012826
  N         6.7234701073        5.2079337230       19.7354113160
  C         6.4536381390        5.4786332908       21.0530134770
  N         6.7235759012       16.0188166178        8.9144196315
  C         6.4538321798       16.2882031418       10.2316811052
  N        15.9864504902       17.5713026540       19.7294222571
  C        16.2525101740       17.2986947558       21.0474330301
  N        15.9779451284        6.7589323076        8.9101733670
  C        16.2476301345        6.4884535762       10.2274230200
  N        15.9751083356        5.2033050936        3.0466449878
  C        16.2441178233        5.4749049370        1.7288230018
  N        15.9847259482       16.0155441982       13.8646370868
  C        16.2536762884       16.2856966164       12.5472013299
 Zn        14.6924954364       14.7226278921       14.7226268354
 Cl        13.4584315949       13.4911218422       13.4911212976
 Zn        14.6831401113        3.9091119975        3.9091129712
 Cl        13.4448148429        2.6799558683        2.6799568141
 Zn         3.8807651934       14.7276859070        3.9116209876
 Cl         2.6460914795       13.4930060377        2.6835304215
 Zn         3.8807655538        3.9116207710       14.7276871796
 Cl         2.6460894763        2.6835316904       13.4930069198
 Zn         8.0135051440        8.0563175971       14.7239206839
 Cl         9.2459011212        9.2881325235       13.4910830093
 Zn         8.0120265435       18.8723648317        3.9143557530
 Cl         9.2510302114       20.1001727065        2.6839571445
 Zn        18.8255485985        8.0505380166        3.9079050860
 Cl        20.0556129336        9.2862322889        2.6767931584
 Zn        18.8315196324       18.8666104843       14.7231932475
 Cl        20.0633536959       20.0938908660       13.4851062209
 Zn         8.0135035477       14.7239200021        8.0563188681
 Cl         9.2459019788       13.4910839111        9.2881311487
 Zn         8.0120270409        3.9143561202       18.8723652672
 Cl         9.2510295567        2.6839571885       20.1001738817
 Zn        18.8315203976       14.7231934858       18.8666097977
 Cl        20.0633538243       13.4851062482       20.0938900960
 Zn        18.8255478548        3.9079041171        8.0505387280
 Cl        20.0556125258        2.6767930037        9.2862338276
 Zn        14.6847118336        8.0535212475        8.0535207873
 Cl        13.4535495613        9.2863143887        9.2863141777
 Zn        14.7005838299       18.8675310735       18.8675310631
 Cl        13.4613554730       20.0966623605       20.0966625133
 Zn         3.8792382905        8.0555680932       18.8709402458
 Cl         2.6472087456        9.2930034829       20.0988642804
 Zn         3.8792375180       18.8709368243        8.0555679546
 Cl         2.6472099354       20.0988642225        9.2930028552
 Zn        14.6885548090       14.7226473485        8.0533730171
 Cl        13.4559580923       13.4907434760        9.2858170971
 Zn        14.6931212304        3.9074888084       18.8661666387
 Cl        13.4536209456        2.6778264515       20.0942742991
 Zn         3.8839520921       14.7275576054       18.8717322663
 Cl         2.6505184240       13.4922740600       20.1004244265
 Zn         3.8745944014        3.9130550479        8.0555028512
 Cl         2.6420893172        2.6850673035        9.2923719645
 Zn         8.0111079265        8.0570513072        8.0570546702
 Cl         9.2431465944        9.2895220907        9.2895214258
 Zn         8.0159079195       18.8709080786       18.8709072976
 Cl         9.2573814877       20.0987748782       20.0987738742
 Zn        18.8279394751        8.0506585155       18.8686747980
 Cl        20.0602159257        9.2871778943       20.0969187733
 Zn        18.8279397325       18.8686751035        8.0506591751
 Cl        20.0602169724       20.0969179881        9.2871777598
 Zn        14.6885554151        8.0533732916       14.7226481108
 Cl        13.4559572419        9.2858170774       13.4907436833
 Zn        14.6931219982       18.8661663670        3.9074873117
 Cl        13.4536224425       20.0942735528        2.6778262403
 Zn         3.8745917076        8.0555016847        3.9130553609
 Cl         2.6420898374        9.2923719242        2.6850674674
 Zn         3.8839506022       18.8717328571       14.7275573803
 Cl         2.6505186249       20.1004250462       13.4922720127
 Zn         8.0155247599       14.7246600834       14.7246611025
 Cl         9.2477156605       13.4921746956       13.4921746953
 Zn         8.0082398808        3.9125357321        3.9125370527
 Cl         9.2450559998        2.6824369573        2.6824363297
 Zn        18.8293007092       14.7232958792        3.9100439207
 Cl        20.0587795422       13.4859172108        2.6797762170
 Zn        18.8293000608        3.9100451629       14.7232973580
 Cl        20.0587790672        2.6797758448       13.4859183707
 Zn         5.9469782139        5.9885399041       16.8019451994
 Zn        16.7672655064       16.7927312007       16.7927310315
 Zn        16.7607627220        5.9809537991        5.9809556119
 Zn         5.9469778447       16.8019407964        5.9885403591
 Zn         5.9436260283        5.9886768021        5.9886762982
 Zn        16.7643165803       16.7932149322        5.9815236800
 Zn         5.9498077641       16.8019027972       16.8019015589
 Zn        16.7643158727        5.9815233229       16.7932164467
  N         3.7596719108        5.9845005470       16.7996532177
  N        14.5721320145        5.9817583014        5.9817605901
  N        18.9524884578       16.7944064336       16.7944057196
  N         8.1278756526       16.7975542409        5.9852502083
  N        18.9447851112        5.9797049042        5.9797041141
  N         8.1278771742        5.9852503197       16.7975541550
  N         3.7596703639       16.7996533783        5.9844994803
  N        14.5809168685       16.7948757033       16.7948759805
  N        16.7542388048        3.7935284905        5.9799749595
  N        16.7628880472       14.6109258766       16.7933011907
  N        16.7651435287       18.9830410999       16.7940372826
  N        16.7556963942        8.1633727545        5.9811063472
  N         5.9464152374       18.9883217144        5.9860527122
  N         5.9469454675        8.1681398230       16.7979157810
  N         5.9460619966        3.7980178920       16.8000495637
  N         5.9445254850       14.6153744987        5.9866137283
  N         5.9460630729       16.8000505001        3.7980187772
  N         5.9445330505        5.9866105103       14.6153771447
  N        16.7651435095       16.7940375277       18.9830406457
  N        16.7556971224        5.9811056222        8.1633723999
  N         5.9464126239        5.9860566874       18.9883255936
  N         5.9469413757       16.7979105469        8.1681408819
  N        16.7542382469        5.9799727786        3.7935303769
  N        16.7628879586       16.7933024172       14.6109240991
  N         5.9414530665        3.7981527689        5.9850948842
  N         5.9494105689       14.6154559004       16.7980187025
  N        16.7598933812       18.9832114946        5.9797336779
  N        16.7594258168        8.1633792367       16.7943745602
  N         5.9506051726       18.9880472664       16.7989867818
  N         5.9412206062        8.1683170455        5.9870583468
  N        16.7601824485        3.7934349106       16.7936516185
  N        16.7592709818       14.6109610175        5.9821601401
  N         3.7635045987       16.8005344925       16.8005324054
  N        14.5766957006       16.7942536839        5.9809227057
  N        18.9489046481       16.7951917133        5.9804354064
  N         8.1317208798       16.7976858725       16.7976843323
  N        18.9489073478        5.9804345703       16.7951939373
  N         8.1237483742        5.9854146414        5.9854154150
  N         3.7551664180        5.9858568166        5.9858535943
  N        14.5766951556        5.9809211462       16.7942557529
  N        16.7598898821        5.9797316450       18.9832140509
  N        16.7594280734       16.7943754932        8.1633773050
  N        16.7601847724       16.7936499421        3.7934354070
  N        16.7592697739        5.9821597301       14.6109601499
  N         5.9414507838        5.9850985013        3.7981554838
  N         5.9494083205       16.7980137491       14.6154577236
  N         5.9506039190       16.7989903112       18.9880472962
  N         5.9412264257        5.9870533322        8.1683211515
  C        11.3552075261       15.7379127469       15.7379128839
  H        11.3545977961       14.9623150555       14.9623156777
  C        11.3464104257        4.9252180397        4.9252201598
  H        11.3452298149        4.1496811070        4.1496845665
  C         0.5358772779       15.7357963359        4.9278616767
  H         0.5375333075       14.9596883259        4.1529005790
  C         0.5358717348        4.9278618663       15.7357974569
  H         0.5375328986        4.1528994958       14.9596900104
  C        11.3522950398        7.0402329568       15.7361803421
  H        11.3525090504        7.8155721202       14.9603277533
  C        11.3519504201       17.8539552633        4.9243844131
  H        11.3515749108       18.6297537393        4.1491336542
  C         0.5300501483        7.0447877276        4.9284079712
  H         0.5301550944        7.8208690032        4.1534129916
  C         0.5381562058       17.8525694349       15.7364376057
  H         0.5382703417       18.6277620155       14.9605529408
  C        11.3522963483       15.7361809551        7.0402330263
  H        11.3525087954       14.9603282845        7.8155724063
  C        11.3519499818        4.9243835609       17.8539548946
  H        11.3515748123        4.1491329376       18.6297529982
  C         0.5381561095       15.7364378209       17.8525683425
  H         0.5382707041       14.9605531026       18.6277606025
  C         0.5300501447        4.9284072311        7.0447881778
  H         0.5301560672        4.1534118591        7.8208696352
  C        11.3489131346        7.0422052218        7.0422068701
  H        11.3499890104        7.8177985890        7.8178014823
  C        11.3571119255       17.8545719425       17.8545714304
  H        11.3577347826       18.6300866106       18.6300861224
  C         0.5328935699        7.0436712110       17.8524427848
  H         0.5314519053        7.8195728649       18.6276176030
  C         0.5328997825       17.8524418770        7.0436707499
  H         0.5314533115       18.6276159549        7.8195731805
  C        15.7024040963       11.3875313891       15.7349676568
  H        14.9269947579       11.3879000852       14.9591498834
  C        15.6943198945        0.5675700240        4.9253142743
  H        14.9182851292        0.5667068464        4.1502260472
  C         4.8818913309       11.3921134119        4.9300142144
  H         4.1073657342       11.3924944580        4.1534496435
  C         4.8942762414        0.5723620329       15.7368632550
  H         4.1193071030        0.5717860159       14.9606901489
  C        15.6975114130       11.3876480944        7.0392218299
  H        14.9221944096       11.3879912784        7.8151207351
  C        15.7004870624        0.5676312485       17.8484421525
  H        14.9249054743        0.5668404702       18.6240025890
  C         4.8894454742       11.3920349769       17.8565486777
  H         4.1146779357       11.3923000018       18.6328663388
  C         4.8877080882        0.5724989236        7.0464825398
  H         4.1128929705        0.5717890834        7.8227946828
  C         7.0042177537       11.3912254151       15.7364424873
  H         7.7790949447       11.3907612586       14.9600918818
  C         7.0028818921        0.5738934186        4.9280575940
  H         7.7782856097        0.5747850167        4.1523586995
  C        17.8144228194       11.3867998827        4.9216125929
  H        18.5899720323       11.3863840248        4.1460837414
  C        17.8157534401        0.5692183370       15.7304416270
  H        18.5906118455        0.5701710644       14.9542089258
  C         6.9966571729       11.3911524290        7.0503163054
  H         7.7719207970       11.3906303941        7.8262675064
  C         7.0088146556        0.5735827545       17.8558212308
  H         7.7841344191        0.5743888602       18.6315914246
  C        17.8193747468       11.3867238456       17.8525687723
  H        18.5951909662       11.3863594674       18.6278336684
  C        17.8112540093        0.5693780660        7.0415628407
  H        18.5868020520        0.5704551332        7.8171175750
  C        15.7024046704       15.7349674617       11.3875346000
  H        14.9269953589       14.9591495669       11.3879001585
  C        15.6943194682        4.9253138423        0.5675688116
  H        14.9182849352        4.1502256648        0.5667075734
  C         4.8942789997       15.7368617524        0.5723592431
  H         4.1193091395       14.9606899605        0.5717845830
  C         4.8818865671        4.9300182352       11.3921060701
  H         4.1073659116        4.1534492559       11.3924941874
  C         7.0042235148       15.7364480494       11.3912185573
  H         7.7790973926       14.9600943549       11.3907600393
  C         7.0028785859        4.9280550058        0.5738897471
  H         7.7782828693        4.1523562309        0.5747854115
  C        17.8157550331       15.7304421286        0.5692182379
  H        18.5906133234       14.9542092395        0.5701698843
  C        17.8144222141        4.9216123308       11.3868022654
  H        18.5899714400        4.1460833600       11.3863848000
  C        15.6975105897        7.0392216337       11.3876503560
  H        14.9221934958        7.8151202684       11.3879915776
  C        15.7004892548       17.8484429254        0.5676315895
  H        14.9249075806       18.6240036687        0.5668408049
  C         4.8877048061        7.0464797584        0.5724950749
  H         4.1128901042        7.8227920433        0.5717896808
  C         4.8894514796       17.8565546971       11.3920276452
  H         4.1146807703       18.6328695556       11.3922982224
  C         6.9966530194        7.0503212109       11.3911449324
  H         7.7719206496        7.8262672003       11.3906298727
  C         7.0088170143       17.8558196354        0.5735812163
  H         7.7841357849       18.6315907985        0.5743886116
  C        17.8112537047        7.0415623993        0.5693772055
  H        18.5868017703        7.8171168168        0.5704556842
  C        17.8193752205       17.8525687155       11.3867265526
  H        18.5951915773       18.6278335872       11.3863593458
 Kr         3.2958128500       10.6871649518       10.6871648328
