     409
 i =      96, E =    -5186.5769294542
  N         2.9024220189        5.2032580568       16.0005732299
  C         1.5845350680        5.4733539395       16.2711106644
  N        13.7087524762        5.1390280999        5.1390283436
  C        12.3918630422        5.4126742260        5.4126739972
  N        19.5891559773       17.5640696250       16.0083210947
  C        20.9072338595       17.2929848752       16.2769309966
  N         8.7531617194       17.5919366899        5.1755543545
  C        10.0743114984       17.3290463157        5.4329794349
  N        19.5801675211        5.2030763137        6.7593764043
  C        20.8981859530        5.4747530277        6.4908559744
  N         8.7531608510        5.1755548463       17.5919374877
  C        10.0743106939        5.4329801753       17.3290473697
  N         2.9030366234       17.5547451736        6.7609475137
  C         1.5850067855       17.2866014624        6.4899743538
  N        13.7160376697       17.6152299542       17.6152299835
  C        12.3996395377       17.3411407664       17.3411406840
  N        15.8929138269        3.0355917211        5.1854373459
  C        16.1584213031        1.7200908889        5.4638753929
  N        15.8586850023       13.8610260158       16.0084605780
  C        16.1323580645       12.5423573752       16.2731798775
  N        15.8951338692       19.7269859517       17.5738440285
  C        16.1597231888       21.0428421761       17.2948362550
  N        15.8474654666        8.8989122273        6.7527234698
  C        16.1200953433       10.2180827121        6.4909447188
  N         6.5900832106       19.7258823557        5.1953054384
  C         6.3207876137       21.0418995849        5.4701174734
  N         6.6380022100        8.9017206297       16.0120977625
  C         6.3674889949       10.2206035408       16.2791041159
  N         6.5960761533        3.0389977521       17.5752157385
  C         6.3295309568        1.7222428661       17.3003904783
  N         6.6324618841       13.8592460954        6.7472720268
  C         6.3600756369       12.5407477694        6.4820674828
  N         5.0535693172       16.0069136855        3.0406048266
  C         5.3217712905       16.2764026672        1.7224319367
  N         5.0670322716        5.2010518030       13.8573215226
  C         5.3378938872        5.4722616699       12.5405044076
  N        17.4352424066       16.0022175145       19.7231705586
  C        17.1656229342       16.2687625821       21.0416326623
  N        17.4131461335        5.2068833296        8.9040125988
  C        17.1426698909        5.4816376769       10.2208550306
  N         5.0475613424        6.7634997023       19.7205159209
  C         5.3131093981        6.4943301854       21.0396372544
  N         5.0698847464       17.5554993329        8.9053403750
  C         5.3439473757       17.2876068786       10.2219662495
  N        17.4311720829        6.7588170010        3.0401637149
  C        17.1631810215        6.4908407517        1.7217434146
  N        17.4249593191       17.5535298962       13.8600517174
  C        17.1554137101       17.2822241551       12.5425698127
  N         5.0412447945        3.0394801660        6.7617449665
  C         5.3103221155        1.7210726484        6.4933537752
  N         5.0719987607       13.8582836516       17.5590443574
  C         5.3444287811       12.5414692169       17.2895329055
  N        17.4336295290       19.7236756299        6.7571246615
  C        17.1640742305       21.0417869574        6.4897095234
  N        17.4254856773        8.9048764256       17.5617847417
  C        17.1558484521       10.2215489419       17.2865043429
  N         5.0568989614       19.7226489815       16.0057474435
  C         5.3231316884       21.0413718213       16.2756062367
  N         5.0637257696        8.9045979928        5.2019743427
  C         5.3368818906       10.2209345897        5.4728357038
  N        17.4329524952        3.0406969370       16.0000163017
  C        17.1647110240        1.7220672424       16.2674280779
  N        17.4137039407       13.8600604708        5.2152792957
  C        17.1429196242       12.5424097955        5.4859654227
  N         2.9068456791       16.0037987062       17.5595770405
  C         1.5888651179       16.2746421492       17.2907036048
  N        13.7242918013       16.0591551289        6.6942466336
  C        12.4045217336       16.3231237293        6.4299184757
  N        19.5843887537       16.0059161635        5.2018815317
  C        20.9027253510       16.2739471022        5.4724620697
  N         8.7761222354       16.0313726939       16.0313725493
  C        10.0894655302       16.3114020504       16.3114017344
  N        19.5855677623        6.7565244472       17.5634365418
  C        20.9033674293        6.4878443689       17.2907526764
  N         8.7680306819        6.7221008272        6.7221003871
  C        10.0811252512        6.4417682481        6.4417674579
  N         2.8976759050        6.7629000394        5.2067581879
  C         1.5798330050        6.4927161104        5.4766942549
  N        13.7242909742        6.6942471028       16.0591555482
  C        12.4045207995        6.4299191384       16.3231243938
  N        15.8942329479        5.1844476792       19.7268722900
  C        16.1588568656        5.4630060649       21.0426930694
  N        15.8602727632       16.0162013193        8.8993327955
  C        16.1331269486       16.2773250864       10.2187136274
  N        15.8935430055       17.5718673307        3.0362293088
  C        16.1590798048       17.2936036428        1.7205631742
  N        15.8478972481        6.7616229264       13.8606891146
  C        16.1203506834        6.4955185310       12.5422223900
  N         6.5828608146        5.1927206353        3.0370428599
  C         6.3175561450        5.4688655029        1.7206316861
  N         6.6386256000       16.0139217992       13.8607360623
  C         6.3673049698       16.2804148520       12.5422859650
  N         6.5997635661       17.5735620708       19.7262949984
  C         6.3311295219       17.2994746788       21.0428134407
  N         6.6312677141        6.7459579178        8.8997166306
  C         6.3599560844        6.4818302601       10.2189484804
  N        19.5855686741       17.5634346989        6.7565244034
  C        20.9033683409       17.2907513019        6.4878440010
  N         8.7569029355       17.5873508217       17.5873514464
  C        10.0779248129       17.3268181410       17.3268184390
  N         2.8976758882        5.2067585571        6.7629004647
  C         1.5798329740        5.4766945423        6.4927164341
  N        13.7127787984        5.1448316102       17.6176479671
  C        12.3962464791        5.4172769780       17.3421001809
  N         2.9068459117       17.5595785854       16.0037986412
  C         1.5888653242       17.2907051575       16.2746416908
  N        13.7127796187       17.6176467124        5.1448302557
  C        12.3962473171       17.3420990199        5.4172759062
  N        19.5843877914        5.2018834263       16.0059160662
  C        20.9027244832        5.4724636993       16.2739471762
  N         8.7478135495        5.1668083914        5.1668091248
  C        10.0692879292        5.4265182270        5.4265182841
  N         6.5997637546       19.7262954904       17.5735614338
  C         6.3311289031       21.0428140319       17.2994748341
  N         6.6312673349        8.8997162907        6.7459589119
  C         6.3599560136       10.2189480470        6.4818310344
  N         6.5828600970        3.0370430423        5.1927203485
  C         6.3175561957        1.7206318863        5.4688656524
  N         6.6386257545       13.8607362753       16.0139219242
  C         6.3673051062       12.5422861778       16.2804151341
  N        15.8935414587        3.0362303609       17.5718675212
  C        16.1590776552        1.7205642656       17.2936029434
  N        15.8478980408       13.8606889111        6.7616224295
  C        16.1203511132       12.5422220857        6.4955181806
  N        15.8942332008       19.7268713770        5.1844474538
  C        16.1588569546       21.0426920320        5.4630065260
  N        15.8602713746        8.8993329812       16.0162024849
  C        16.1331247728       10.2187138988       16.2773265727
  N        17.4336278543        6.7571262046       19.7236769492
  C        17.1640732094        6.4897100799       21.0417882219
  N        17.4254872398       17.5617833088        8.9048757547
  C        17.1558507923       17.2865026962       10.2215483125
  N         5.0412453393        6.7617450389        3.0394804248
  C         5.3103218825        6.4933535439        1.7210728375
  N         5.0719988929       17.5590445746       13.8582832300
  C         5.3444288667       17.2895328214       12.5414688171
  N        17.4329528569       16.0000149894        3.0406953862
  C        17.1647124107       16.2674280757        1.7220657231
  N        17.4137023215        5.2152789838       13.8600610436
  C        17.1429184713        5.4859653245       12.5424104106
  N         5.0568989230       16.0057479375       19.7226484885
  C         5.3231325277       16.2756060438       21.0413712299
  N         5.0637255546        5.2019739226        8.9045981936
  C         5.3368815218        5.4728352220       10.2209348537
  N        17.4352417584       19.7231723581       16.0022168603
  C        17.1656213840       21.0416343375       16.2687616502
  N        17.4131464009        8.9040118484        5.2068837891
  C        17.1426703405       10.2208543399        5.4816377570
  N         5.0535669317        3.0406053548       16.0069147884
  C         5.3217691356        1.7224323957       16.2764036117
  N         5.0670332527       13.8573213462        5.2010517885
  C         5.3378946838       12.5405043223        5.4722618824
  N        17.4311728569        3.0401626597        6.7588175794
  C        17.1631816302        1.7217424420        6.4908413633
  N        17.4249588631       13.8600523981       17.5535282963
  C        17.1554119418       12.5425704184       17.2822242441
  N         5.0475627196       19.7205155589        6.7634994920
  C         5.3131107103       21.0396369301        6.4943303687
  N         5.0698840993        8.9053406803       17.5554994789
  C         5.3439470324       10.2219665431       17.2876071323
  N        19.5801674251        6.7593756417        5.2030761810
  C        20.8981859725        6.4908554088        5.4747529529
  N         8.7726938642        6.7248930053       16.0300332273
  C        10.0859713127        6.4443310991       16.3097569012
  N         2.9030358189        6.7609476661       17.5547458947
  C         1.5850058937        6.4899746996       17.2866022753
  N        13.7193442026        6.6933339378        6.6933332867
  C        12.3997160809        6.4285413363        6.4285403612
  N         2.9024231613       16.0005740710        5.2032562987
  C         1.5845361316       16.2711110279        5.4733524366
  N        13.7277754973       16.0615174452       16.0615161945
  C        12.4079849320       16.3253877741       16.3253869080
  N        19.5891557729       16.0083217057       17.5640667545
  C        20.9072337578       16.2769318170       17.2929826678
  N         8.7726947539       16.0300326980        6.7248927242
  C        10.0859721939       16.3097561288        6.4443305357
  N         6.5960778938       17.5752152378        3.0389971237
  C         6.3295327032       17.3003897400        1.7222423864
  N         6.6324611768        6.7472718065       13.8592463377
  C         6.3600751646        6.4820671014       12.5407479455
  N         6.5900818119        5.1953056852       19.7258822285
  C         6.3207864001        5.4701173037       21.0418995516
  N         6.6380026596       16.0120974949        8.9017204683
  C         6.3674891563       16.2791037425       10.2206033121
  N        15.8951353376       17.5738455342       19.7269849442
  C        16.1597253710       17.2948377843       21.0428410849
  N        15.8474658880        6.7527238554        8.8989124841
  C        16.1200955666        6.4909450800       10.2180828266
  N        15.8929145498        5.1854351989        3.0355926764
  C        16.1584216795        5.4638736851        1.7200919136
  N        15.8586852555       16.0084621019       13.8610255555
  C        16.1323597126       16.2731798643       12.5423568803
 Zn        14.5531827436       14.7639975249       14.7639966673
 Cl        13.0916654820       13.6657665180       13.6657692525
 Zn        14.6057289956        3.8642080154        3.8642098640
 Cl        13.4269543646        2.6067882866        2.6067904502
 Zn         3.7718997489       14.7131018233        3.9076994673
 Cl         2.5318712895       13.4766570785        2.6861253906
 Zn         3.7718982275        3.9077000455       14.7131019746
 Cl         2.5318697416        2.6861260149       13.4766573079
 Zn         7.9350776869        8.0251346028       14.7269816529
 Cl         9.1493034329        9.2663253286       13.4865146752
 Zn         7.8806085411       18.8795908978        3.8937880177
 Cl         9.1020474768       20.1198348894        2.6579881690
 Zn        18.7151670619        8.0527527944        3.9108522740
 Cl        19.9365845783        9.3031201559        2.6866270896
 Zn        18.7214083573       18.8486346202       14.7140215832
 Cl        19.9445437737       20.0756054571       13.4662134930
 Zn         7.9350785341       14.7269815623        8.0251346313
 Cl         9.1493038459       13.4865140642        9.2663252913
 Zn         7.8806070289        3.8937882691       18.8795910623
 Cl         9.1020448564        2.6579885396       20.1198362602
 Zn        18.7214085163       14.7140219938       18.8486312399
 Cl        19.9445437531       13.4662151976       20.0756037657
 Zn        18.7151671207        3.9108521524        8.0527533927
 Cl        19.9365840498        2.6866278652        9.3031222477
 Zn        14.5430363190        7.9948192367        7.9948191871
 Cl        13.0611148723        9.0791919231        9.0791898636
 Zn        14.6076087549       18.8894679389       18.8894677230
 Cl        13.4255088720       20.1457770562       20.1457769795
 Zn         3.7690413278        8.0567330199       18.8413736015
 Cl         2.5279053658        9.2932933142       20.0626664941
 Zn         3.7690423303       18.8413733063        8.0567325920
 Cl         2.5279062645       20.0626666711        9.2932923510
 Zn        14.5492218102       14.7722551793        8.0058026466
 Cl        13.0785467604       13.7474149489        9.1615054135
 Zn        14.6062664786        3.8677300273       18.8893878139
 Cl        13.4257424765        2.6092988206       20.1447848905
 Zn         3.7759243387       14.7131568736       18.8490224791
 Cl         2.5358908563       13.4777699046       20.0725663369
 Zn         3.7613025222        3.9123593915        8.0561114065
 Cl         2.5210828543        2.6944378712        9.2952936194
 Zn         7.9319044579        8.0219062902        8.0219068454
 Cl         9.1490562642        9.2620541399        9.2620540181
 Zn         7.8883307037       18.8752035446       18.8752032230
 Cl         9.1150926122       20.1104330858       20.1104315096
 Zn        18.7210301491        8.0503565158       18.8559321071
 Cl        19.9478726950        9.2891152430       20.0870496686
 Zn        18.7210310008       18.8559305335        8.0503556737
 Cl        19.9478733139       20.0870493153        9.2891135661
 Zn        14.5492212045        8.0058028984       14.7722554323
 Cl        13.0785459782        9.1615067150       13.7474165471
 Zn        14.6062671594       18.8893870250        3.8677287546
 Cl        13.4257432747       20.1447849259        2.6092984076
 Zn         3.7613030907        8.0561113441        3.9123596283
 Cl         2.5210824740        9.2952930368        2.6944384747
 Zn         3.7759247519       18.8490233692       14.7131562924
 Cl         2.5358917825       20.0725670043       13.4777686093
 Zn         7.9376438663       14.7282388531       14.7282387803
 Cl         9.1480819501       13.4861245865       13.4861243096
 Zn         7.8646206933        3.8868354510        3.8868355239
 Cl         9.0811700764        2.6457360712        2.6457370671
 Zn        18.7160157512       14.7116892511        3.9170308947
 Cl        19.9341384751       13.4523466908        2.6975299599
 Zn        18.7160153318        3.9170320843       14.7116898302
 Cl        19.9341374171        2.6975297095       13.4523480702
 Zn         5.8382664453        5.9714015927       16.7848150050
 Zn        16.6556238405       16.8054170418       16.8054150948
 Zn        16.6487327059        5.9558756833        5.9558760855
 Zn         5.8382671860       16.7848148493        5.9714008620
 Zn         5.8324961179        5.9688077866        5.9688080968
 Zn        16.6530039284       16.8089828923        5.9587300218
 Zn         5.8420093583       16.7856744067       16.7856739251
 Zn        16.6530031886        5.9587308324       16.8089840991
  N         3.6490429012        5.9824224124       16.7770960849
  N        14.4603992630        5.9152478289        5.9152478796
  N        18.8424742438       16.7866821684       16.7866803037
  N         8.0163742819       16.8069203570        5.9560282439
  N        18.8336249367        5.9803834791        5.9803838425
  N         8.0163734042        5.9560286143       16.8069208117
  N         3.6490438396       16.7770963218        5.9824214693
  N        14.4684796343       16.8396865693       16.8396859285
  N        16.6627231541        3.7839644471        5.9685753515
  N        16.6409104079       14.6075097199       16.7839228084
  N        16.6666065219       18.9791329106       16.7918731429
  N        16.6300100905        8.1544614534        5.9752660316
  N         5.8200839018       18.9763585365        5.9776573828
  N         5.8524935051        8.1571581211       16.7841194296
  N         5.8245724000        3.7865208273       16.7924876819
  N         5.8502790681       14.6045565969        5.9726085073
  N         5.8245745357       16.7924869630        3.7865202185
  N         5.8502783002        5.9726087019       14.6045568384
  N        16.6666073720       16.7918737328       18.9791314859
  N        16.6300096046        5.9752665251        8.1544618850
  N         5.8200825355        5.9776578135       18.9763586302
  N         5.8524942373       16.7841192671        8.1571578646
  N        16.6627230555        5.9685737932        3.7839653739
  N        16.6409099026       16.7839252455       14.6075090806
  N         5.8113924823        3.7849546838        5.9748733752
  N         5.8548010861       14.6057578426       16.7871248840
  N        16.6653283538       18.9794435854        5.9672624145
  N        16.6418984847        8.1551896970       16.7936546512
  N         5.8291975640       18.9775946121       16.7908933565
  N         5.8469006579        8.1557547245        5.9721321716
  N        16.6639740874        3.7846329073       16.7894950643
  N        16.6307951611       14.6074829957        5.9858833014
  N         3.6531760553       16.7811155643       16.7811147769
  N        14.4650314122       16.8403181831        5.9190518981
  N        18.8383963840       16.7857835984        5.9787551517
  N         8.0200392338       16.8045446857       16.8045451120
  N        18.8383954258        5.9787562975       16.7857847646
  N         8.0113087615        5.9496191343        5.9496195675
  N         3.6439889357        5.9848647044        5.9848647202
  N        14.4650305640        5.9190527460       16.8403191184
  N        16.6653272128        5.9672638275       18.9794447076
  N        16.6418996684       16.7936537979        8.1551892443
  N        16.6639743602       16.7894938625        3.7846316358
  N        16.6307941071        5.9858829831       14.6074835290
  N         5.8113933625        5.9748738973        3.7849547374
  N         5.8548012188       16.7871249731       14.6057575176
  N         5.8291969422       16.7908942070       18.9775941392
  N         5.8469006282        5.9721312443        8.1557549957
  C        11.2542365075       15.7684493061       15.7684480614
  H        11.2700769946       14.9930556767       14.9930534244
  C        11.2240815849        4.8691393650        4.8691395447
  H        11.2117336664        4.0938867062        4.0938873612
  C         0.4232333980       15.7219473024        4.9231607573
  H         0.4236602130       14.9455513560        4.1485098698
  C         0.4232322019        4.9231632687       15.7219463039
  H         0.4236588857        4.1485137802       14.9455489433
  C        11.2506393484        6.9846653991       15.7642973500
  H        11.2660840923        7.7594625655       14.9883842779
  C        11.2285925360       17.8877757203        4.8762779874
  H        11.2161441175       18.6658457134        4.1037801729
  C         0.4190830418        7.0422193121        4.9257946688
  H         0.4201362667        7.8180983409        4.1505831441
  C         0.4280681476       17.8418041911       15.7252921475
  H         0.4288099431       18.6166190850       14.9490201264
  C        11.2506402053       15.7642967779        6.9846649749
  H        11.2660850300       14.9883839957        7.7594624213
  C        11.2285916832        4.8762791820       17.8877770151
  H        11.2161434217        4.1037816294       18.6658472909
  C         0.4280677796       15.7252921353       17.8418016096
  H         0.4288092039       14.9490192892       18.6166157084
  C         0.4190831683        4.9257952960        7.0422201609
  H         0.4201365664        4.1505844224        7.8180998312
  C        11.2454668202        6.9848633175        6.9848617261
  H        11.2604171079        7.7602021628        7.7601997138
  C        11.2321687214       17.8845237915       17.8845241367
  H        11.2200619925       18.6598283705       18.6598288497
  C         0.4246808370        7.0391844819       17.8387901780
  H         0.4260181058        7.8148908812       18.6142087255
  C         0.4246815467       17.8387884038        7.0391847614
  H         0.4260185685       18.6142061967        7.8148919185
  C        15.5789090811       11.3794110540       15.7296737180
  H        14.7905479006       11.3760531010       14.9681158596
  C        15.6125159505        0.5614773272        4.9074876291
  H        14.8459946469        0.5618794949        4.1225525401
  C         4.7829443122       11.3808798535        4.9262213022
  H         4.0023476902       11.3810862386        4.1557777332
  C         4.7766223415        0.5617693087       15.7207574353
  H         4.0069896461        0.5618889216       14.9393984832
  C        15.5668946192       11.3791271277        7.0387430859
  H        14.7807482060       11.3759761590        7.8022275807
  C        15.6128009385        0.5618270199       17.8495008506
  H        14.8454691746        0.5623194459       18.6336423765
  C         4.7896501895       11.3814511613       17.8351663272
  H         4.0084052706       11.3810163586       18.6051171892
  C         4.7662838580        0.5599584985        7.0494318275
  H         3.9970332047        0.5597209764        7.8310771997
  C         6.9211179466       11.3817256229       15.7327248782
  H         7.7002620843       11.3825297347       14.9608084968
  C         6.8660286683        0.5617472202        4.9150805749
  H         7.6358645039        0.5627692539        4.1337246373
  C        17.6961070974       11.3825311760        4.9372893754
  H        18.4744206582       11.3841374235        4.1641383914
  C        17.7095528183        0.5617924618       15.7110603207
  H        18.4780806012        0.5614940436       14.9287715657
  C         6.9131894175       11.3797208911        7.0298373865
  H         7.6922203379       11.3799520997        7.8020155148
  C         6.8772649970        0.5627187615       17.8540606870
  H         7.6477249084        0.5632402888       18.6347197584
  C        17.7093503275       11.3831082789       17.8308590776
  H        18.4872963628       11.3849949309       18.6043039102
  C        17.7078590352        0.5617609484        7.0476142939
  H        18.4761229992        0.5614991680        7.8301945195
  C        15.5789113455       15.7296727107       11.3794108505
  H        14.7905502951       14.9681147246       11.3760532171
  C        15.6125169147        4.9074857716        0.5614780701
  H        14.8459967035        4.1225496206        0.5618799369
  C         4.7766239237       15.7207565860        0.5617689612
  H         4.0069912400       14.9393976557        0.5618887708
  C         4.7829435757        4.9262212265       11.3808801264
  H         4.0023465993        4.1557779786       11.3810863928
  C         6.9211178793       15.7327243603       11.3817254652
  H         7.7002619278       14.9608079036       11.3825296738
  C         6.8660278484        4.9150803067        0.5617468938
  H         7.6358635483        4.1337241988        0.5627683177
  C        17.7095542486       15.7110607589        0.5617908493
  H        18.4780818530       14.9287718194        0.5614920398
  C        17.6961060675        4.9372889541       11.3825316894
  H        18.4744192074        4.1641375859       11.3841382378
  C        15.5668948085        7.0387439963       11.3791275389
  H        14.7807490087        7.8022290403       11.3759763368
  C        15.6128038451       17.8495026936        0.5618259277
  H        14.8454728919       18.6336449984        0.5623186890
  C         4.7662827771        7.0494313306        0.5599589653
  H         3.9970317267        7.8310763236        0.5597218777
  C         4.7896504527       17.8351662338       11.3814507429
  H         4.0084056976       18.6051172516       11.3810158377
  C         6.9131893689        7.0298365603       11.3797211025
  H         7.6922205700        7.8020144321       11.3799524184
  C         6.8772662546       17.8540603339        0.5627180506
  H         7.6477259938       18.6347195342        0.5632394127
  C        17.7078578102        7.0476146668        0.5617623346
  H        18.4761212755        7.8301953979        0.5615008476
  C        17.7093529629       17.8308577167       11.3831074591
  H        18.4872994322       18.6043021273       11.3849937361
 Kr        14.0803694930       11.3617879293       11.3617883433
