     409
 i =      96, E =    -5186.5836501725
  N         2.8928750469        5.2019461445       16.0020840952
  C         1.5750157783        5.4724655430       16.2717261365
  N        13.7001839530        5.1536980118        5.1536989031
  C        12.3824705960        5.4251027911        5.4251026355
  N        19.5808689734       17.5628415486       16.0072643948
  C        20.8988549402       17.2926271062       16.2766062447
  N         8.7464674070       17.5867289376        5.1807845863
  C        10.0666867739       17.3215506215        5.4414322501
  N        19.5699800291        5.2046392222        6.7605521790
  C        20.8879576482        5.4753633014        6.4914090119
  N         8.7464663698        5.1807838491       17.5867286249
  C        10.0666847044        5.4414326536       17.3215520945
  N         2.8931647166       17.5559930085        6.7593042836
  C         1.5753029962       17.2870991968        6.4890250543
  N        13.7112203402       17.6015275201       17.6015257378
  C        12.3939432637       17.3292527583       17.3292523173
  N        15.8813354859        3.0370801088        5.1906784797
  C        16.1481928397        1.7209404163        5.4670985517
  N        15.8511871859       13.8597833381       16.0055018493
  C        16.1245650177       12.5416648326       16.2706892315
  N        15.8846928414       19.7257114547       17.5700789935
  C        16.1497893108       21.0423100510       17.2928639428
  N        15.8360930750        8.9005542517        6.7564687384
  C        16.1105197063       10.2192150823        6.4946503916
  N         6.5842826425       19.7254083391        5.1973685454
  C         6.3151540287       21.0417537484        5.4716907107
  N         6.6223858638        8.9026238088       16.0133574157
  C         6.3533694813       10.2212130736       16.2814566345
  N         6.5904586146        3.0397355474       17.5735496741
  C         6.3241245000        1.7226324181       17.2995184811
  N         6.6181721704       13.8589469156        6.7473456426
  C         6.3470223618       12.5407378686        6.4805120259
  N         5.0451078207       16.0076665378        3.0403640857
  C         5.3147479599       16.2770420723        1.7224210581
  N         5.0552561474        5.1987781412       13.8579888981
  C         5.3262194726        5.4693578213       12.5410032606
  N        17.4267718187       16.0005306995       19.7229029385
  C        17.1569463682       16.2680102284       21.0414779029
  N        17.4023297750        5.2108560384        8.9037734409
  C        17.1330346409        5.4852779367       10.2207734302
  N         5.0388465561        6.7631791875       19.7206286392
  C         5.3058810307        6.4944078015       21.0395942339
  N         5.0569067270       17.5589698016        8.9056303369
  C         5.3312700993       17.2913153945       10.2223885322
  N        17.4222673179        6.7614715081        3.0412295216
  C        17.1546019349        6.4926284909        1.7226191849
  N        17.4170021381       17.5512803585       13.8592053784
  C        17.1471165160       17.2801938112       12.5418352330
  N         5.0325804076        3.0393608516        6.7615922677
  C         5.3031514256        1.7211800408        6.4935197418
  N         5.0606607051       13.8588743933       17.5621152954
  C         5.3325865229       12.5418978475       17.2928800526
  N        17.4258457485       19.7232744031        6.7602733160
  C        17.1561827168       21.0416401378        6.4920973072
  N        17.4159127135        8.9047101241       17.5580413738
  C        17.1466192919       10.2214899827       17.2836554088
  N         5.0497051357       19.7227621845       16.0071152932
  C         5.3167476331       21.0413158661       16.2766454760
  N         5.0507256173        8.9049353083        5.1993683315
  C         5.3245571746       10.2213654175        5.4696436616
  N        17.4238441242        3.0415117009       15.9991288782
  C        17.1554999219        1.7228599745       16.2672993431
  N        17.4060923364       13.8589111127        5.2166117050
  C        17.1349116895       12.5416208081        5.4881678563
  N         2.8982324886       16.0053773531       17.5610920951
  C         1.5803003657       16.2754931559       17.2915348672
  N        13.7123523372       16.0475262472        6.7094889434
  C        12.3937198682       16.3134148762        6.4427573122
  N        19.5754876944       16.0045542086        5.2025943377
  C        20.8936303547       16.2732046194        5.4725697694
  N         8.7652986761       16.0261503839       16.0261508114
  C        10.0799590339       16.3030883329       16.3030880896
  N        19.5764685329        6.7572933619       17.5614270550
  C        20.8941424766        6.4880686776       17.2897714084
  N         8.7544437146        6.7284592337        6.7284593258
  C        10.0687384212        6.4510620686        6.4510613517
  N         2.8869626485        6.7613522795        5.2053449441
  C         1.5692430891        6.4919215555        5.4759726491
  N        13.7123485543        6.7094877044       16.0475293415
  C        12.3937179696        6.4427573238       16.3134172095
  N        15.8841445782        5.1902805129       19.7260052196
  C        16.1494542783        5.4668662694       21.0424096135
  N        15.8501949486       16.0130003777        8.9007146598
  C        16.1239967287       16.2744363673       10.2194527607
  N        15.8821431894       17.5691974701        3.0378416067
  C        16.1485494401       17.2923182597        1.7214900677
  N        15.8406007518        6.7633133468       13.8605919672
  C        16.1126925196        6.4980315793       12.5422154323
  N         6.5767387155        5.1946504409        3.0378070994
  C         6.3118496203        5.4704094244        1.7210409796
  N         6.6242910261       16.0144711292       13.8602495461
  C         6.3539041966       16.2822825014       12.5421563939
  N         6.5955313664       17.5723432531       19.7259704675
  C         6.3264040386       17.2989249470       21.0427331705
  N         6.6157366079        6.7456095913        8.9005040067
  C         6.3462430134        6.4799512435       10.2194961043
  N        19.5764691468       17.5614224051        6.7572935299
  C        20.8941439841       17.2897674571        6.4880664318
  N         8.7522982484       17.5824719640       17.5824735159
  C        10.0722756170       17.3188400630       17.3188406105
  N         2.8869628017        5.2053459954        6.7613514703
  C         1.5692446840        5.4759723796        6.4919220424
  N        13.7056974888        5.1583188083       17.6052246685
  C        12.3883827182        5.4291970939       17.3315763402
  N         2.8982307134       17.5610997754       16.0053700182
  C         1.5802996339       17.2915396417       16.2754884531
  N        13.7056991905       17.6052212255        5.1583198705
  C        12.3883852408       17.3315745361        5.4291964778
  N        19.5754827181        5.2025971714       16.0045576179
  C        20.8936265886        5.4725722779       16.2732058130
  N         8.7400574334        5.1728474368        5.1728495108
  C        10.0605308164        5.4353799567        5.4353804475
  N         6.5955356023       19.7259702705       17.5723473697
  C         6.3264043575       21.0427357781       17.2989264723
  N         6.6157348718        8.9005036230        6.7456110913
  C         6.3462430288       10.2194947820        6.4799528418
  N         6.5767348295        3.0378069812        5.1946519265
  C         6.3118468518        1.7210403941        5.4704106666
  N         6.6242905102       13.8602488981       16.0144710677
  C         6.3539047624       12.5421577812       16.2822817132
  N        15.8821436356        3.0378444020       17.5691929774
  C        16.1485489607        1.7214909387       17.2923149897
  N        15.8406068310       13.8605906057        6.7633171288
  C        16.1126902622       12.5422161391        6.4980296111
  N        15.8841453877       19.7260079579        5.1902790289
  C        16.1494533233       21.0424112491        5.4668664853
  N        15.8501882734        8.9007132971       16.0130027884
  C        16.1239942728       10.2194524628       16.2744362810
  N        17.4258424293        6.7602761197       19.7232794437
  C        17.1561834879        6.4920993187       21.0416407158
  N        17.4159203761       17.5580399319        8.9047067013
  C        17.1466213985       17.2836548244       10.2214900279
  N         5.0325830796        6.7615893917        3.0393624000
  C         5.3031523090        6.4935184148        1.7211813042
  N         5.0606606573       17.5621145437       13.8588730192
  C         5.3325860395       17.2928793026       12.5418971512
  N        17.4238423863       15.9991322972        3.0415122866
  C        17.1554995981       16.2673016149        1.7228608671
  N        17.4060859586        5.2166079822       13.8589110216
  C        17.1349124489        5.4881709043       12.5416203734
  N         5.0497008449       16.0071106447       19.7227627403
  C         5.3167475065       16.2766433859       21.0413172444
  N         5.0507260492        5.1993682471        8.9049355083
  C         5.3245565046        5.4696430713       10.2213648358
  N        17.4267700348       19.7229050886       16.0005285780
  C        17.1569451455       21.0414777568       16.2680085951
  N        17.4023316450        8.9037721352        5.2108603127
  C        17.1330330481       10.2207722184        5.4852751843
  N         5.0451048367        3.0403666201       16.0076658316
  C         5.3147463318        1.7224217082       16.2770439395
  N         5.0552599124       13.8579877072        5.1987806570
  C         5.3262211878       12.5410030578        5.4693583607
  N        17.4222621092        3.0412295136        6.7614674552
  C        17.1545991203        1.7226200906        6.4926262852
  N        17.4170073942       13.8592056099       17.5512822844
  C        17.1471172208       12.5418336618       17.2801946886
  N         5.0388464277       19.7206289175        6.7631830364
  C         5.3058815577       21.0395942709        6.4944096575
  N         5.0569077977        8.9056307261       17.5589686680
  C         5.3312701864       10.2223881743       17.2913161865
  N        19.5699818287        6.7605482055        5.2046427363
  C        20.8879580486        6.4914072561        5.4753644739
  N         8.7605591718        6.7318870694       16.0256478318
  C        10.0750047433        6.4540960275       16.3027663023
  N         2.8931597349        6.7593107398       17.5559995475
  C         1.5752997541        6.4890290855       17.2871039721
  N        13.7052430062        6.7082713643        6.7082715561
  C        12.3870500770        6.4409941403        6.4409930452
  N         2.8928737090       16.0020797757        5.2019381446
  C         1.5750138754       16.2717241153        5.4724613518
  N        13.7174778374       16.0468449739       16.0468411502
  C        12.3988827562       16.3133743356       16.3133724326
  N        19.5808694055       16.0072684366       17.5628366215
  C        20.8988559204       16.2766094250       17.2926234177
  N         8.7605616420       16.0256477783        6.7318872063
  C        10.0750059611       16.3027640758        6.4540958432
  N         6.5904607330       17.5735506262        3.0397393630
  C         6.3241264321       17.2995172027        1.7226321629
  N         6.6181699089        6.7473424518       13.8589446574
  C         6.3470211251        6.4805106459       12.5407380196
  N         6.5842831877        5.1973658772       19.7254087378
  C         6.3151552939        5.4716887712       21.0417533929
  N         6.6223857764       16.0133598139        8.9026246935
  C         6.3533689337       16.2814574699       10.2212132765
  N        15.8846951869       17.5700823931       19.7257099769
  C        16.1497907592       17.2928670647       21.0423091868
  N        15.8360915399        6.7564646476        8.9005565139
  C        16.1105231249        6.4946515980       10.2192166010
  N        15.8813423628        5.1906803974        3.0370839574
  C        16.1481955021        5.4670979118        1.7209438425
  N        15.8511826782       16.0055006299       13.8597794005
  C        16.1245649979       16.2706893697       12.5416613684
 Zn        14.5467028373       14.7478851460       14.7478786719
 Cl        13.1479573486       13.6069951936       13.6069953771
 Zn        14.5959979394        3.8781313244        3.8781365385
 Cl        13.4085627709        2.6237002303        2.6237024886
 Zn         3.7585191877       14.7147064437        3.9058289020
 Cl         2.5226701934       13.4769469421        2.6821335931
 Zn         3.7585180145        3.9058278723       14.7147039299
 Cl         2.5226662263        2.6821321292       13.4769456008
 Zn         7.9126740188        8.0314704000       14.7244531839
 Cl         9.1367744637        9.2676373987       13.4879813938
 Zn         7.8744682589       18.8769226090        3.8967206758
 Cl         9.0991519971       20.1154704730        2.6624840404
 Zn        18.7061611226        8.0548716970        3.9150873574
 Cl        19.9272061100        9.3059879988        2.6911232999
 Zn        18.7145225802       18.8467014906       14.7130346651
 Cl        19.9368325108       20.0726608365       13.4636124511
 Zn         7.9126754636       14.7244519500        8.0314688883
 Cl         9.1367749157       13.4879802942        9.2676370599
 Zn         7.8744641995        3.8967218031       18.8769233822
 Cl         9.0991484159        2.6624852565       20.1154714105
 Zn        18.7145194300       14.7130322644       18.8466978683
 Cl        19.9368299199       13.4636165476       20.0726580315
 Zn        18.7061637764        3.9150907733        8.0548734752
 Cl        19.9272077243        2.6911240332        9.3059900594
 Zn        14.5289483579        8.0092971458        8.0092961127
 Cl        13.1132579294        9.1398231655        9.1398202176
 Zn        14.5997631230       18.8816642737       18.8816647052
 Cl        13.4041882263       20.1319373747       20.1319362138
 Zn         3.7534218363        8.0550025842       18.8437519525
 Cl         2.5171760515        9.2931515390       20.0673189242
 Zn         3.7534264529       18.8437533744        8.0550038201
 Cl         2.5171764286       20.0673190014        9.2931520465
 Zn        14.5408666520       14.7589461127        8.0176468997
 Cl        13.1345775819       13.6675016070        9.1981060952
 Zn        14.5976628616        3.8812262882       18.8832128545
 Cl        13.4060422251        2.6249903180       20.1316339214
 Zn         3.7649819180       14.7151512589       18.8524189940
 Cl         2.5272574133       13.4786274898       20.0765895107
 Zn         3.7466964869        3.9101514889        8.0546018122
 Cl         2.5109064412        2.6899243682        9.2951487352
 Zn         7.9091319072        8.0270303388        8.0270316688
 Cl         9.1359227315        9.2627133940        9.2627128788
 Zn         7.8856555676       18.8723800647       18.8723772040
 Cl         9.1134938095       20.1068840091       20.1068823223
 Zn        18.7139809745        8.0522451406       18.8509851292
 Cl        19.9391723259        9.2930210471       20.0818294751
 Zn        18.7139825700       18.8509844927        8.0522460494
 Cl        19.9391747292       20.0818291678        9.2930191593
 Zn        14.5408658451        8.0176477992       14.7589465025
 Cl        13.1345758885        9.1981079309       13.6675041983
 Zn        14.5976668290       18.8832116195        3.8812255276
 Cl        13.4060457380       20.1316319392        2.6249913545
 Zn         3.7466957698        8.0546027110        3.9101535127
 Cl         2.5109063310        9.2951476763        2.6899253163
 Zn         3.7649792256       18.8524140771       14.7151518114
 Cl         2.5272590878       20.0765880783       13.4786274288
 Zn         7.9164413819       14.7251569925       14.7251573939
 Cl         9.1363759443       13.4872156796       13.4872157322
 Zn         7.8588948078        3.8902654586        3.8902637830
 Cl         9.0787128029        2.6508190564        2.6508199096
 Zn        18.7083417135       14.7104280740        3.9183723831
 Cl        19.9266912748       13.4510763330        2.6993110212
 Zn        18.7083382966        3.9183722639       14.7104295549
 Cl        19.9266887914        2.6993119377       13.4510796151
 Zn         5.8306044925        5.9709860966       16.7853342023
 Zn        16.6475208754       16.7961068099       16.7961001395
 Zn        16.6322652305        5.9607237425        5.9607257524
 Zn         5.8306057815       16.7853351685        5.9709871644
 Zn         5.8200286757        5.9684668506        5.9684683289
 Zn        16.6423574106       16.8005739194        5.9622532121
 Zn         5.8358057671       16.7864556556       16.7864552089
 Zn        16.6423519353        5.9622538611       16.8005772932
  N         3.6396189081        5.9805774259       16.7789154225
  N        14.4490518292        5.9309220385        5.9309183774
  N        18.8341507571       16.7850485454       16.7850572453
  N         8.0073072665       16.8032565593        5.9606470614
  N        18.8231160238        5.9820569973        5.9820504021
  N         8.0073050863        5.9606494605       16.8032600492
  N         3.6396217021       16.7789218149        5.9805844436
  N        14.4608425257       16.8247717468       16.8247742510
  N        16.6517692681        3.7852284774        5.9735626489
  N        16.6330566361       14.6062329986       16.7807305447
  N        16.6570128313       18.9780405606       16.7882734273
  N        16.6173311890        8.1552637507        5.9788684660
  N         5.8123734437       18.9762943883        5.9784719757
  N         5.8379165910        8.1576001907       16.7860089216
  N         5.8171577643        3.7866602169       16.7919850522
  N         5.8369771289       14.6048212632        5.9721242486
  N         5.8171605587       16.7919799203        3.7866588323
  N         5.8369797256        5.9721307472       14.6048224494
  N        16.6570137054       16.7882703743       18.9780404435
  N        16.6173331495        5.9788753868        8.1552617336
  N         5.8123677122        5.9784785045       18.9762969070
  N         5.8379197659       16.7860024331        8.1575983137
  N        16.6517598965        5.9735552587        3.7852269111
  N        16.6330653383       16.7807355136       14.6062326169
  N         5.8034290955        3.7851686147        5.9757090990
  N         5.8419198360       14.6059554834       16.7885531410
  N        16.6559914594       18.9785015932        5.9724927038
  N        16.6314575826        8.1557898817       16.7897742004
  N         5.8233742953       18.9775627447       16.7909060881
  N         5.8321067126        8.1561733986        5.9713337551
  N        16.6534789037        3.7857781631       16.7868649243
  N        16.6227760216       14.6066331397        5.9870394242
  N         3.6447140164       16.7830858169       16.7830967968
  N        14.4555447436       16.8275754027        5.9340229011
  N        18.8292532943       16.7837215300        5.9797307337
  N         8.0125418046       16.8009159857       16.8009161155
  N        18.8292546919        5.9797301182       16.7837155209
  N         8.0008894057        5.9543731142        5.9543731298
  N         3.6334534989        5.9829753524        5.9829762100
  N        14.4555447669        5.9340271282       16.8275713539
  N        16.6559917979        5.9724909933       18.9785043128
  N        16.6314517899       16.7897768083        8.1557873999
  N        16.6534821281       16.7868583916        3.7857768109
  N        16.6227827596        5.9870461915       14.6066358225
  N         5.8034253262        5.9757153467        3.7851681255
  N         5.8419211208       16.7885548288       14.6059558926
  N         5.8233816330       16.7909157875       18.9775626138
  N         5.8321059787        5.9713325814        8.1561738990
  C        11.2435910108       15.7579809602       15.7579791737
  H        11.2553826331       14.9824447552       14.9824417478
  C        11.2167727985        4.8796282045        4.8796288396
  H        11.2076118323        4.1042750204        4.1042763011
  C         0.4140205920       15.7217826806        4.9226398771
  H         0.4143272843       14.9453693161        4.1480051632
  C         0.4140212935        4.9226428747       15.7217819141
  H         0.4143262937        4.1480084961       14.9453658398
  C        11.2388448148        6.9969802610       15.7561692635
  H        11.2511188711        7.7719736131       14.9801158507
  C        11.2224572890       17.8783467149        4.8859726734
  H        11.2127848195       18.6558351236        4.1127148515
  C         0.4086665453        7.0422119218        4.9256745606
  H         0.4096836927        7.8181762095        4.1505329894
  C         0.4195747808       17.8420589356       15.7254784781
  H         0.4200631486       18.6167616477       14.9490943022
  C        11.2388460690       15.7561677239        6.9969791292
  H        11.2511210409       14.9801143065        7.7719717920
  C        11.2224546989        4.8859738483       17.8783477706
  H        11.2127835586        4.1127160349       18.6558366539
  C         0.4195773585       15.7254780551       17.8420588770
  H         0.4200636690       14.9490931292       18.6167622211
  C         0.4086687062        4.9256754697        7.0422119054
  H         0.4096834192        4.1505339655        7.8181770372
  C        11.2319484757        6.9962537164        6.9962520462
  H        11.2437999175        7.7717736860        7.7717708880
  C        11.2283813283       17.8745644827       17.8745651498
  H        11.2192725571       18.6499648267       18.6499661343
  C         0.4151438086        7.0390214747       17.8386081554
  H         0.4162956144        7.8148562617       18.6139165955
  C         0.4151479987       17.8386052137        7.0390215884
  H         0.4162975013       18.6139141467        7.8148596170
  C        15.5705632893       11.3798275187       15.7259287776
  H        14.7843940112       11.3775544575       14.9617119756
  C        15.6024533630        0.5614501679        4.9116871460
  H        14.8348644486        0.5614064984        4.1278689276
  C         4.7719786642       11.3815345023        4.9222083722
  H         3.9923832679       11.3820341063        4.1508276627
  C         4.7693063328        0.5615134300       15.7223765949
  H         3.9988209607        0.5613211933       14.9418490076
  C        15.5582799061       11.3803942664        7.0428406637
  H        14.7735114102       11.3787660521        7.8082212952
  C        15.6024585191        0.5617466396       17.8471622242
  H        14.8341191581        0.5618946248       18.6302022442
  C         4.7783107375       11.3821162272       17.8396103244
  H         3.9980910596       11.3820522767       18.6105052185
  C         4.7586098832        0.5599795068        7.0488036445
  H         3.9884502021        0.5597366916        7.8295398128
  C         6.9072775133       11.3816962530       15.7343211973
  H         7.6861463411       11.3820770160       14.9620100329
  C         6.8611090019        0.5618816103        4.9174760551
  H         7.6318196241        0.5629091334        4.1369728108
  C        17.6874036120       11.3813993618        4.9400739960
  H        18.4656026194       11.3820409251        4.1669322709
  C        17.7011570235        0.5623420928       15.7116950889
  H        18.4703468248        0.5625233181       14.9300455268
  C         6.8998058009       11.3797761797        7.0284437328
  H         7.6786170051       11.3796388973        7.8009376449
  C         6.8729094065        0.5630848025       17.8525539331
  H         7.6442768292        0.5638598449       18.6323088419
  C        17.7006469032       11.3823123777       17.8286759142
  H        18.4786464607       11.3836190173       18.6019546673
  C        17.7002991385        0.5623917962        7.0484475715
  H        18.4692576037        0.5626137687        7.8303195729
  C        15.5705649209       15.7259288434       11.3798230372
  H        14.7843968538       14.9617122256       11.3775535540
  C        15.6024551250        4.9116843470        0.5614531531
  H        14.8348662977        4.1278635313        0.5614066953
  C         4.7693081994       15.7223753581        0.5615155542
  H         3.9988236909       14.9418486248        0.5613207581
  C         4.7719775985        4.9222091226       11.3815333532
  H         3.9923809071        4.1508287570       11.3820345573
  C         6.9072785359       15.7343210123       11.3816954305
  H         7.6861480704       14.9620100891       11.3820772903
  C         6.8611092094        4.9174771864        0.5618817660
  H         7.6318197090        4.1369752194        0.5629088377
  C        17.7011587642       15.7116957800        0.5623432313
  H        18.4703485230       14.9300456579        0.5625226092
  C        17.6874051993        4.9400774435       11.3814008719
  H        18.4656039804        4.1669350721       11.3820418644
  C        15.5582825907        7.0428438590       11.3803941918
  H        14.7735137713        7.8082247940       11.3787664097
  C        15.6024618373       17.8471644098        0.5617437999
  H        14.8341240246       18.6302043318        0.5618939896
  C         4.7586078184        7.0488031150        0.5599803419
  H         3.9884470419        7.8295384410        0.5597379717
  C         4.7783104760       17.8396085451       11.3821163802
  H         3.9980902246       18.6105027601       11.3820510625
  C         6.8998065817        7.0284425901       11.3797775134
  H         7.6786183850        7.8009356581       11.3796386774
  C         6.8729108951       17.8525533060        0.5630824396
  H         7.6442788849       18.6323091596        0.5638599385
  C        17.7002983658        7.0484481778        0.5623907165
  H        18.4692542020        7.8303193577        0.5626151415
  C        17.7006488627       17.8286758307       11.3823146758
  H        18.4786504469       18.6019551500       11.3836179001
 Kr        14.8138467880       11.3589525822       11.3589532172
