     409
 i =      96, E =    -5186.5878356403
  N         2.8740451419        5.1992754322       16.0110919700
  C         1.5561930409        5.4708572805       16.2799049140
  N        13.6884793224        5.1896394779        5.1896414981
  C        12.3713223524        5.4605749399        5.4605736628
  N        19.5585289610       17.5688649063       16.0128567830
  C        20.8764795367       17.2972026047       16.2811575827
  N         8.7382934465       17.5702025616        5.2001463083
  C        10.0560623972       17.3007862570        5.4697254826
  N        19.5522524757        5.2007068638        6.7570802860
  C        20.8704291814        5.4715514420        6.4877279527
  N         8.7382846721        5.2001453493       17.5702022907
  C        10.0560527104        5.4697259667       17.3007900061
  N         2.8743686984       17.5667475412        6.7560216122
  C         1.5564304278       17.2957672875        6.4870700053
  N        13.6963410644       17.5656540560       17.5656555636
  C        12.3785114144       17.2963843120       17.2963764842
  N        15.8453495197        3.0411608342        5.1972648963
  C        16.1136632155        1.7238369701        5.4700912430
  N        15.8490656651       13.8607997367       16.0091298761
  C        16.1200548809       12.5436781701       16.2771118710
  N        15.8459188207       19.7249682546       17.5665351203
  C        16.1143081765       21.0429612671       17.2951354344
  N        15.8331482726        8.9073296572        6.7598742395
  C        16.1051619777       10.2242857458        6.4907678029
  N         6.5859676496       19.7250785572        5.2016688034
  C         6.3171544669       21.0427891885        5.4734435307
  N         6.5886062990        8.9074389831       16.0123387178
  C         6.3195080211       10.2248252894       16.2830989817
  N         6.5893188438        3.0437044174       17.5698744332
  C         6.3215091877        1.7257508458       17.2980680132
  N         6.5900075557       13.8606861737        6.7558672764
  C         6.3197684382       12.5433025864        6.4855274720
  N         5.0339467581       16.0131784956        3.0431963092
  C         5.3058636284       16.2816967617        1.7255120197
  N         5.0335734543        5.2000006904       13.8613648798
  C         5.3035114483        5.4697042131       12.5438631593
  N        17.4004527402       16.0094367571       19.7251272238
  C        17.1294857681       16.2782531252       21.0431002628
  N        17.3918895100        5.2076815381        8.9051492116
  C        17.1238235001        5.4775431194       10.2229036480
  N         5.0303843589        6.7579192069       19.7244142971
  C         5.3014117318        6.4897448232       21.0424431006
  N         5.0320649305       17.5672851654        8.9072787697
  C         5.3031027552       17.2986231435       10.2247628069
  N        17.3960341033        6.7582147476        3.0424932765
  C        17.1265119163        6.4891873485        1.7243309030
  N        17.4039073884       17.5657970787       13.8605958672
  C        17.1351569545       17.2940164752       12.5432387823
  N         5.0275265473        3.0415603035        6.7569605189
  C         5.2999948763        1.7237676831        6.4892895479
  N         5.0334187521       13.8622692751       17.5697377212
  C         5.3036712654       12.5448324390       17.2998219970
  N        17.3977596551       19.7249247862        6.7573424943
  C        17.1271030643       21.0429803341        6.4886766768
  N        17.4010751644        8.9057614396       17.5642967716
  C        17.1338655745       10.2234803566       17.2931035153
  N         5.0338282891       19.7264817195       16.0136710725
  C         5.3057660756       21.0442662405       16.2818963647
  N         5.0308829794        8.9065659644        5.1993133045
  C         5.3021997196       10.2237762407        5.4692159434
  N        17.3996826280        3.0425908039       16.0088169038
  C        17.1293771612        1.7245831953       16.2778426963
  N        17.3989823988       13.8596607880        5.2050872657
  C        17.1275136275       12.5425910956        5.4758139743
  N         2.8758432691       16.0125591690       17.5687953105
  C         1.5580085961       16.2809392170       17.2969959935
  N        13.6941380796       16.0167060656        6.7557137089
  C        12.3767205639       16.2861398322        6.4857518534
  N        19.5563923946       16.0118190945        5.2000680198
  C        20.8744478164       16.2804170844        5.4712145512
  N         8.7396630241       16.0131984034       16.0131979381
  C        10.0572624726       16.2822648184       16.2822565781
  N        19.5565750933        6.7555015901       17.5686997334
  C        20.8746063907        6.4869931252       17.2968423786
  N         8.7365575606        6.7513849163        6.7513823731
  C        10.0532584436        6.4795037196        6.4795010319
  N         2.8706643617        6.7561527424        5.1996921604
  C         1.5526861762        6.4872028883        5.4711312861
  N        13.6941346925        6.7557127825       16.0167072349
  C        12.3767138721        6.4857545990       16.2861459590
  N        15.8459032566        5.1976729005       19.7252629684
  C        16.1137266579        5.4700345764       21.0429972276
  N        15.8474752452       16.0070214831        8.9074750455
  C        16.1191506016       16.2759534878       10.2243672590
  N        15.8459801748       17.5669315675        3.0420357168
  C        16.1146014966       17.2950642537        1.7243279505
  N        15.8394932709        6.7571947827       13.8614800144
  C        16.1087112598        6.4890070937       12.5440268541
  N         6.5817101496        5.1994107199        3.0416480621
  C         6.3151671869        5.4724969098        1.7238972646
  N         6.5893827956       16.0137132731       13.8621644814
  C         6.3197977407       16.2839232636       12.5448301432
  N         6.5898894048       17.5695559065       19.7260822985
  C         6.3217390103       17.2979850175       21.0441427566
  N         6.5878943571        6.7539394878        8.9050975337
  C         6.3187432733        6.4846279258       10.2228805608
  N        19.5565667915       17.5686827993        6.7555041093
  C        20.8746060959       17.2968371196        6.4869918546
  N         8.7408015025       17.5688072111       17.5688111379
  C        10.0582191460       17.2981957646       17.2981910957
  N         2.8706641343        5.1996959393        6.7561490397
  C         1.5526754274        5.4711354438        6.4871990002
  N        13.6938433242        5.1978942658       17.5709098025
  C        12.3763956513        5.4687703239       17.3012012234
  N         2.8758426340       17.5687962190       16.0125575404
  C         1.5580116042       17.2969988997       16.2809358241
  N        13.6938478367       17.5709090810        5.1978964155
  C        12.3764027500       17.3011966293        5.4687684678
  N        19.5563984736        5.2000641231       16.0118236530
  C        20.8744561669        5.4712200245       16.2804180715
  N         8.7324235163        5.1955144423        5.1955182769
  C        10.0507855838        5.4635745656        5.4635762850
  N         6.5898916126       19.7260822790       17.5695546955
  C         6.3217381331       21.0441445293       17.2979845182
  N         6.5878878218        8.9050961666        6.7539403209
  C         6.3187382161       10.2228828013        6.4846280823
  N         6.5817087937        3.0416492155        5.1994039589
  C         6.3151675364        1.7239013261        5.4724923521
  N         6.5893803999       13.8621630551       16.0137131430
  C         6.3197967871       12.5448296988       16.2839226381
  N        15.8459722987        3.0420317533       17.5669231780
  C        16.1145974963        1.7243195147       17.2950572727
  N        15.8395159558       13.8614823870        6.7572246152
  C        16.1086980521       12.5440371601        6.4890021269
  N        15.8459003426       19.7252573428        5.1976655893
  C        16.1137184948       21.0429846799        5.4700296643
  N        15.8474625127        8.9074771101       16.0070403148
  C        16.1191576652       10.2243784905       16.2759568219
  N        17.3977609595        6.7573580910       19.7249341192
  C        17.1271070765        6.4886846412       21.0429758440
  N        17.4010821029       17.5642765454        8.9057558808
  C        17.1338580243       17.2931013012       10.2234846556
  N         5.0275234204        6.7569615137        3.0415573285
  C         5.2999917553        6.4892899271        1.7237714529
  N         5.0334189889       17.5697366560       13.8622712339
  C         5.3036704098       17.2998216581       12.5448369156
  N        17.3996873010       16.0088266563        3.0425965251
  C        17.1293798138       16.2778493147        1.7245873965
  N        17.3989626773        5.2050605663       13.8596547029
  C        17.1275282933        5.4758212379       12.5425827014
  N         5.0338261953       16.0136710251       19.7264832035
  C         5.3057674312       16.2818967106       21.0442706991
  N         5.0308838244        5.1993170161        8.9065658434
  C         5.3022013016        5.4692193025       10.2237802991
  N        17.4004506665       19.7251217670       16.0094319696
  C        17.1294784806       21.0430905905       16.2782433634
  N        17.3918965566        8.9051550703        5.2076908784
  C        17.1238153179       10.2229183247        5.4775423531
  N         5.0339450474        3.0431954207       16.0131804260
  C         5.3058618015        1.7255076489       16.2816998599
  N         5.0335719162       13.8613628134        5.1999970030
  C         5.3035105239       12.5438638663        5.4697010790
  N        17.3960337832        3.0424856435        6.7582152489
  C        17.1265159666        1.7243324021        6.4891871319
  N        17.4039013137       13.8606005422       17.5658046236
  C        17.1351532278       12.5432404178       17.2940195996
  N         5.0303873787       19.7244142274        6.7579214773
  C         5.3014141104       21.0424414093        6.4897473939
  N         5.0320664424        8.9072767118       17.5672868543
  C         5.3031036798       10.2247600269       17.2986245303
  N        19.5522539905        6.7570787729        5.2007073434
  C        20.8704418240        6.4877218755        5.4715563458
  N         8.7394746738        6.7560986533       16.0146598348
  C        10.0567356824        6.4860043712       16.2851806789
  N         2.8743732573        6.7560223802       17.5667549631
  C         1.5564377380        6.4870704956       17.2957739297
  N        13.6909424768        6.7454506691        6.7454487268
  C        12.3731341795        6.4765569469        6.4765525679
  N         2.8740374887       16.0110909676        5.1992715444
  C         1.5561882680       16.2799047614        5.4708557734
  N        13.6942569621       16.0097304235       16.0097249579
  C        12.3772188464       16.2803803416       16.2803680458
  N        19.5585277400       16.0128583616       17.5688619290
  C        20.8764821290       16.2811607247       17.2971984848
  N         8.7394821470       16.0146580975        6.7560952772
  C        10.0567441441       16.2851765399        6.4860004340
  N         6.5893210326       17.5698718148        3.0437048609
  C         6.3215111195       17.2980648178        1.7257486595
  N         6.5900129160        6.7558668277       13.8606858348
  C         6.3197727147        6.4855274198       12.5433045875
  N         6.5859663145        5.2016717315       19.7250769901
  C         6.3171549203        5.4734441697       21.0427880856
  N         6.5886082411       16.0123386280        8.9074399099
  C         6.3195092149       16.2830984766       10.2248265361
  N        15.8459244097       17.5665370276       19.7249754741
  C        16.1143178721       17.2951436715       21.0429686074
  N        15.8331391242        6.7598620499        8.9073236213
  C        16.1051684343        6.4907669680       10.2242809513
  N        15.8453528325        5.1972568169        3.0411696909
  C        16.1136601966        5.4700853023        1.7238489552
  N        15.8490748289       16.0091213074       13.8607925989
  C        16.1200618863       16.2771089539       12.5436694399
 Zn        14.5546774052       14.7174448242       14.7174474354
 Cl        13.3293312399       13.4813589699       13.4813609792
 Zn        14.5549540346        3.8994332946        3.8994272608
 Cl        13.3316660686        2.6626258935        2.6626313998
 Zn         3.7397123781       14.7209308050        3.9048346612
 Cl         2.5112321257       13.4849217629        2.6724702084
 Zn         3.7397112776        3.9048333928       14.7209282688
 Cl         2.5112290738        2.6724659264       13.4849194509
 Zn         7.8844597204        8.0503171006       14.7200241019
 Cl         9.1159529937        9.2848835359       13.4896138079
 Zn         7.8793478047       18.8655527105        3.9070105405
 Cl         9.1160665615       20.0978385737        2.6792906988
 Zn        18.6826707437        8.0508238099        3.9095340892
 Cl        19.9108833755        9.2946266258        2.6841664774
 Zn        18.6953573714       18.8622608111       14.7203170279
 Cl        19.9252453329       20.0896451620       13.4806859296
 Zn         7.8844640358       14.7200220189        8.0503230440
 Cl         9.1159553969       13.4896067277        9.2848853362
 Zn         7.8793402022        3.9070113545       18.8655473826
 Cl         9.1160593638        2.6792956362       20.0978399375
 Zn        18.6953606163       14.7203144424       18.8622639568
 Cl        19.9252508405       13.4806852463       20.0896484091
 Zn        18.6826645657        3.9095423371        8.0508126269
 Cl        19.9108787777        2.6841797889        9.2946218888
 Zn        14.5383584861        8.0445281646        8.0445235774
 Cl        13.2249397639        9.2345236200        9.2345218870
 Zn        14.5561371782       18.8600720848       18.8600772172
 Cl        13.3155187156       20.0882307629       20.0882342429
 Zn         3.7374555137        8.0494797860       18.8601471927
 Cl         2.5038884559        9.2865809181       20.0864848133
 Zn         3.7374542468       18.8601525403        8.0494844448
 Cl         2.5038853343       20.0864883574        9.2865880424
 Zn        14.5496639143       14.7212849836        8.0506603887
 Cl        13.2865657607       13.5039694858        9.2668856718
 Zn        14.5555197926        3.9029400835       18.8631393346
 Cl        13.3191031935        2.6681653310       20.0886330428
 Zn         3.7396417252       14.7220145130       18.8646023022
 Cl         2.5085786425       13.4850650142       20.0933443697
 Zn         3.7357829614        3.9058999913        8.0494562993
 Cl         2.5036872298        2.6775464162        9.2859743838
 Zn         7.8833585134        8.0471474083        8.0471515711
 Cl         9.1037802081        9.2849870608        9.2849842469
 Zn         7.8827001106       18.8632490024       18.8632537783
 Cl         9.1218616213       20.0920093704       20.0920092937
 Zn        18.6903524563        8.0482855064       18.8618822587
 Cl        19.9188552886        9.2862171569       20.0926151311
 Zn        18.6903563166       18.8618806473        8.0482843778
 Cl        19.9188590400       20.0926178960        9.2862192300
 Zn        14.5496514525        8.0506645789       14.7212720456
 Cl        13.2865558632        9.2668952907       13.5039576816
 Zn        14.5555336334       18.8631317423        3.9029521696
 Cl        13.3191186822       20.0886246384        2.6681780237
 Zn         3.7357855458        8.0494452345        3.9059084558
 Cl         2.5036911036        9.2859615031        2.6775560241
 Zn         3.7396449486       18.8645971984       14.7220179268
 Cl         2.5085866072       20.0933427831       13.4850667773
 Zn         7.8836970427       14.7199205455       14.7199238960
 Cl         9.1185715328       13.4889617889       13.4889611107
 Zn         7.8694468457        3.9025334961        3.9025388986
 Cl         9.1032501845        2.6706852965        2.6706879378
 Zn        18.6911499205       14.7186619279        3.9079073026
 Cl        19.9217174698       13.4773854297        2.6826799955
 Zn        18.6911580218        3.9078959145       14.7186523656
 Cl        19.9217249605        2.6826681333       13.4773798477
 Zn         5.8044617699        5.9760265742       16.7872229141
 Zn        16.6217287661       16.7867902280       16.7867896790
 Zn        16.6145483559        5.9719622245        5.9719662837
 Zn         5.8044598577       16.7872212675        5.9760257485
 Zn         5.8001209008        5.9737251464        5.9737200144
 Zn        16.6190539224       16.7877240847        5.9738612766
 Zn         5.8053091199       16.7892285201       16.7892303890
 Zn        16.6190621460        5.9738545255       16.7877432821
  N         3.6205925392        5.9769291133       16.7895336049
  N        14.4358814188        5.9673258376        5.9673197311
  N        18.8118914810       16.7918075502       16.7917991588
  N         7.9921939557       16.7920752597        5.9782679497
  N        18.8057910999        5.9784372384        5.9784522472
  N         7.9921839583        5.9782675583       16.7920761244
  N         3.6205783524       16.7895296425        5.9769226006
  N        14.4416715948       16.7873543436       16.7873494904
  N        16.6209654047        3.7882891375        5.9766411246
  N        16.6256235900       14.6070723104       16.7884763643
  N        16.6238697362       18.9783104679       16.7886714271
  N        16.6113040625        8.1594043199        5.9829648114
  N         5.8074303567       18.9780235641        5.9786860111
  N         5.8097216011        8.1607909866       16.7891951874
  N         5.8104112261        3.7899853725       16.7924598193
  N         5.8118046154       14.6073298075        5.9781150087
  N         5.8104081903       16.7924540389        3.7899882745
  N         5.8118109532        5.9781197667       14.6073292142
  N        16.6238685156       16.7886764493       18.9783221740
  N        16.6113211153        5.9829623347        8.1593958756
  N         5.8074287885        5.9786869014       18.9780259080
  N         5.8097207097       16.7891956873        8.1607895835
  N        16.6209576598        5.9766340645        3.7883058608
  N        16.6256222495       16.7884818719       14.6070589489
  N         5.8029528347        3.7881692102        5.9764990461
  N         5.8111440018       14.6085953384       16.7915280571
  N        16.6226335212       18.9783657499        5.9765116766
  N        16.6228104188        8.1598512604       16.7865981605
  N         5.8106694555       18.9795903444       16.7925546354
  N         5.8087458686        8.1592716547        5.9765578546
  N        16.6232253859        3.7888124895       16.7886459156
  N        16.6195142713       14.6069826484        5.9802848421
  N         3.6221783883       16.7916315828       16.7916236856
  N        14.4402294922       16.7935275825        5.9765619794
  N        18.8099244016       16.7911213291        5.9769455770
  N         7.9935190454       16.7912882597       16.7912934594
  N        18.8099346121        5.9769630302       16.7911270746
  N         7.9877822714        5.9744318984        5.9744326194
  N         3.6169138499        5.9772026075        5.9771909335
  N        14.4402275072        5.9765638748       16.7935326900
  N        16.6226516397        5.9765220597       18.9783755065
  N        16.6227705218       16.7866058897        8.1598455991
  N        16.6232069704       16.7886390806        3.7888170173
  N        16.6195534951        5.9803041181       14.6069774127
  N         5.8029477866        5.9765085155        3.7881657283
  N         5.8111426865       16.7915312484       14.6085961328
  N         5.8106676113       16.7925578403       18.9795914158
  N         5.8087555493        5.9765653915        8.1592697876
  C        11.2163464751       15.7306458516       15.7306318496
  H        11.2143499042       14.9550395245       14.9550209532
  C        11.2096641889        4.9115878641        4.9115909868
  H        11.2072522875        4.1361065251        4.1361120238
  C         0.3951330536       15.7293633425        4.9215310107
  H         0.3949690982       14.9532175549        4.1465988907
  C         0.3951413741        4.9215295566       15.7293586191
  H         0.3949770891        4.1466005826       14.9532061137
  C        11.2169188745        7.0367870850       15.7352892015
  H        11.2180197508        7.8126040271       14.9598427870
  C        11.2159063839       17.8510446950        4.9183663679
  H        11.2155176608       18.6258000713        4.1421007483
  C         0.3916089696        7.0378232008        4.9216590699
  H         0.3922481627        7.8136021158        4.1463712384
  C         0.3972299797       17.8464843581       15.7300038715
  H         0.3973824558       18.6211909866       14.9536131491
  C        11.2169292186       15.7352849393        7.0367810386
  H        11.2180274319       14.9598375925        7.8125943222
  C        11.2158943385        4.9183652569       17.8510492386
  H        11.2155095649        4.1420980364       18.6258055540
  C         0.3972296782       15.7300028335       17.8464856234
  H         0.3973821804       14.9536108210       18.6211945922
  C         0.3916033878        4.9216598036        7.0378239295
  H         0.3922401783        4.1463726862        7.8136033940
  C        11.2143795279        7.0285906457        7.0285854514
  H        11.2190492037        7.8042252002        7.8042164487
  C        11.2191748869       17.8477575101       17.8477526593
  H        11.2207511033       18.6232849187       18.6232822947
  C         0.3957564392        7.0376909336       17.8459289755
  H         0.3967003225        7.8136703560       18.6210357040
  C         0.3957495669       17.8459238972        7.0377004901
  H         0.3966928459       18.6210306256        7.8136844018
  C        15.5698787979       11.3844433551       15.7246238820
  H        14.7943437175       11.3857152121       14.9490295877
  C        15.5643635971        0.5633959369        4.9187615027
  H        14.7906290986        0.5641443556        4.1413891606
  C         4.7521932025       11.3842154734        4.9191823744
  H         3.9762581557       11.3848458063        4.1440599713
  C         4.7564239519        0.5648792855       15.7307135860
  H         3.9815220502        0.5651867854       14.9545247360
  C        15.5539464148       11.3853246362        7.0383753824
  H        14.7728271275       11.3882438985        7.8081978506
  C        15.5641949718        0.5637242354       17.8453288857
  H        14.7887618852        0.5644340263       18.6210021137
  C         4.7527877529       11.3846422873       17.8496695207
  H         3.9767474909       11.3843635948       18.6246998294
  C         4.7513423614        0.5629014662        7.0406946013
  H         3.9762374813        0.5629237410        7.8166466122
  C         6.8705707349       11.3849293382       15.7331160069
  H         7.6462655874       11.3849626018       14.9575992123
  C         6.8669617129        0.5635821190        4.9231245981
  H         7.6424903804        0.5641225160        4.1475034459
  C        17.6778358202       11.3814925218        4.9276433816
  H        18.4549855799       11.3791676521        4.1536610999
  C        17.6787138237        0.5637952690       15.7267818270
  H        18.4532522308        0.5637810100       14.9502141622
  C         6.8699642027       11.3826324124        7.0355537388
  H         7.6453719371       11.3816335805        7.8113667268
  C         6.8724217894        0.5649800837       17.8477144842
  H         7.6482024790        0.5651349173       18.6230462048
  C        17.6848949197       11.3828358181       17.8444933423
  H        18.4592984715       11.3820216300       18.6211940312
  C        17.6751981528        0.5637004931        7.0412563594
  H        18.4485090599        0.5637244837        7.8190491488
  C        15.5698932282       15.7246163827       11.3844349423
  H        14.7943579771       14.9490262897       11.3857052021
  C        15.5643645975        4.9187558660        0.5634061172
  H        14.7906337147        4.1413765040        0.5641558618
  C         4.7564268181       15.7307123090        0.5648824521
  H         3.9815253437       14.9545238480        0.5651911956
  C         4.7521870991        4.9191824222       11.3842177567
  H         3.9762466377        4.1440603686       11.3848467748
  C         6.8705736806       15.7331155310       11.3849313683
  H         7.6462698432       14.9575988514       11.3849630281
  C         6.8669648589        4.9231268195        0.5635795995
  H         7.6424959040        4.1475079070        0.5641186051
  C        17.6787246615       15.7267919003        0.5638048929
  H        18.4532619778       14.9502219496        0.5637884315
  C        17.6778336837        4.9276417275       11.3814798297
  H        18.4549889073        4.1536692617       11.3791568766
  C        15.5539384524        7.0383722124       11.3853159089
  H        14.7728221411        7.8082016301       11.3882379614
  C        15.5642102975       17.8453367236        0.5637333080
  H        14.7887783487       18.6210068386        0.5644396857
  C         4.7513407749        7.0406869362        0.5629015717
  H         3.9762345017        7.8166330313        0.5629246718
  C         4.7527862629       17.8496668214       11.3846460668
  H         3.9767444070       18.6246955520       11.3843675123
  C         6.8699672865        7.0355481272       11.3826334661
  H         7.6453770519        7.8113575471       11.3816340337
  C         6.8724245116       17.8477133269        0.5649791833
  H         7.6482056603       18.6230451045        0.5651323274
  C        17.6751942290        7.0412620481        0.5637066592
  H        18.4485040281        7.8190555681        0.5637276283
  C        17.6849047880       17.8444866689       11.3828309401
  H        18.4593059647       18.6211927143       11.3820187959
 Kr        15.7066329519       11.2610363432       11.2610350099
