     409
 i =      96, E =    -5186.5846828319
  N         2.8417306177        5.2045452484       16.0169281229
  C         1.5236209965        5.4762650666       16.2856013894
  N        13.6591664398        5.2075697521        5.2075724422
  C        12.3413919830        5.4771679688        5.4771705617
  N        19.5246979081       17.5753958867       16.0189945779
  C        20.8426523876       17.3026488135       16.2865716893
  N         8.7033656597       17.5757188342        5.2070149285
  C        10.0208073587       17.3041112134        5.4757930070
  N        19.5240084658        5.2055419742        6.7618257979
  C        20.8418570304        5.4767236968        6.4928046661
  N         8.7033716173        5.2070117789       17.5757227922
  C        10.0208209723        5.4757996883       17.3041076158
  N         2.8417123166       17.5730929287        6.7607238652
  C         1.5239229349       17.3017189044        6.4922680016
  N        13.6593283700       17.5741463722       17.5741459238
  C        12.3416121693       17.3042956983       17.3042949638
  N        15.8088920251        3.0501566065        5.2058952047
  C        16.0770005824        1.7320592418        5.4769891527
  N        15.8114712824       13.8672706493       16.0168394433
  C        16.0817581219       12.5498452354       16.2863465794
  N        15.8097117248       19.7320186202       17.5733079045
  C        16.0775991865       21.0500459616       17.3010101206
  N        15.8132733267        8.9128695371        6.7645782999
  C        16.0844886048       10.2301187851        6.4961770951
  N         6.5513445701       19.7327984539        5.2071748426
  C         6.2826315700       21.0506293984        5.4779933011
  N         6.5513876425        8.9128475768       16.0183178667
  C         6.2815445652       10.2300897932       16.2882500196
  N         6.5545387048        3.0495888904       17.5766810862
  C         6.2862958097        1.7317465609       17.3049205819
  N         6.5517627884       13.8669065368        6.7622467782
  C         6.2815729427       12.5497271882        6.4926002849
  N         5.0005895866       16.0192309266        3.0497508731
  C         5.2713749644       16.2879239619        1.7319483197
  N         4.9981747310        5.2048264471       13.8675236181
  C         5.2667539121        5.4754447347       12.5499505672
  N        17.3651666358       16.0166113808       19.7320607027
  C        17.0932848320       16.2846471914       21.0499469473
  N        17.3680986729        5.2075423304        8.9128173969
  C        17.0995266851        5.4792057260       10.2301616935
  N         4.9947964231        6.7623303580       19.7330352327
  C         5.2660967124        6.4934919096       21.0509131598
  N         4.9964302171       17.5750368821        8.9126235171
  C         5.2660603323       17.3047375452       10.2300522220
  N        17.3649440490        6.7616593597        3.0493283145
  C        17.0930102875        6.4929368266        1.7315724743
  N        17.3674801779       17.5725968605       13.8673336356
  C        17.0977124739       17.3023836566       12.5498764351
  N         4.9968973720        3.0498450072        6.7621583569
  C         5.2672953737        1.7319978023        6.4933264725
  N         4.9983192520       13.8675906945       17.5757296938
  C         5.2669336425       12.5500237819       17.3050598270
  N        17.3638754661       19.7323577949        6.7609723999
  C        17.0923234511       21.0501775805        6.4925735790
  N        17.3662822741        8.9123769832       17.5743299231
  C        17.0971012802       10.2297676978       17.3032988553
  N         4.9989093758       19.7329562768       16.0191190245
  C         5.2703722980       21.0508259758       16.2877767322
  N         4.9966423680        8.9126675004        5.2056042214
  C         5.2660392318       10.2301027082        5.4758168220
  N        17.3659725412        3.0493916641       16.0165615749
  C        17.0938282792        1.7314662255       16.2846063726
  N        17.3683033716       13.8675140432        5.2087583266
  C        17.0995416783       12.5500695270        5.4797883431
  N         2.8425498933       16.0176266881       17.5739100757
  C         1.5245485806       16.2857025872       17.3017794888
  N        13.6584782232       16.0161464053        6.7601562545
  C        12.3409711650       16.2861650698        6.4902538728
  N        19.5238369700       16.0190062419        5.2056279381
  C        20.8418192475       16.2869888436        5.4770101020
  N         8.7034341689       16.0185654544       16.0185648439
  C        10.0208922519       16.2884821157       16.2884810739
  N        19.5245758771        6.7614033399       17.5758633841
  C        20.8423888960        6.4928004449       17.3033500860
  N         8.7034009954        6.7620128442        6.7620129538
  C        10.0207107101        6.4923239331        6.4923249319
  N         2.8411550603        6.7615499034        5.2055162026
  C         1.5233105760        6.4926569796        5.4765914434
  N        13.6584637942        6.7601547697       16.0161493907
  C        12.3409811899        6.4902490278       16.2861733002
  N        15.8077688221        5.2049372991       19.7323197015
  C        16.0763146910        5.4765208807       21.0503657624
  N        15.8099879638       16.0185411255        8.9124124541
  C        16.0810906262       16.2872738593       10.2297391881
  N        15.8105694246       17.5730900992        3.0496487019
  C        16.0781548854       17.3008959149        1.7317217001
  N        15.8135742638        6.7655424784       13.8672674565
  C        16.0844730783        6.4966890603       12.5499500564
  N         6.5528437852        5.2066407403        3.0494687440
  C         6.2836074385        5.4776538985        1.7317134305
  N         6.5524275002       16.0186551388       13.8670351787
  C         6.2821542662       16.2883532685       12.5497674182
  N         6.5533923707       17.5762955535       19.7328135358
  C         6.2854989426       17.3046391181       21.0506364079
  N         6.5510429106        6.7626331939        8.9131659390
  C         6.2811222203        6.4927546654       10.2302300750
  N        19.5245789154       17.5758651757        6.7614043891
  C        20.8423945297       17.3033496218        6.4927984902
  N         8.7036622817       17.5748223002       17.5748209623
  C        10.0210616866       17.3045052444       17.3045043240
  N         2.8411805873        5.2055270520        6.7615379609
  C         1.5232984093        5.4765979802        6.4926505407
  N        13.6589298523        5.2051795466       17.5727341025
  C        12.3412380982        5.4748016272       17.3026661387
  N         2.8425472372       17.5739151977       16.0176213125
  C         1.5245481156       17.3017801940       16.2857020307
  N        13.6589385674       17.5727370343        5.2051756426
  C        12.3412321944       17.3026710696        5.4747936746
  N        19.5238390561        5.2056282642       16.0190063265
  C        20.8418063309        5.4770107724       16.2869885025
  N         8.7036298034        5.2058989703        5.2058991040
  C        10.0210467461        5.4762733934        5.4762747363
  N         6.5533876222       19.7328215124       17.5762915230
  C         6.2854912487       21.0506283887       17.3046330035
  N         6.5510429731        8.9131316371        6.7626274507
  C         6.2811328326       10.2302350321        6.4927604031
  N         6.5528510635        3.0494655176        5.2066328053
  C         6.2836157958        1.7317048919        5.4776462693
  N         6.5524247511       13.8670237637       16.0186568451
  C         6.2821486403       12.5497777341       16.2883567798
  N        15.8105710612        3.0496486062       17.5730880818
  C        16.0781526363        1.7317253564       17.3008979846
  N        15.8135744351       13.8672689034        6.7655433828
  C        16.0844752508       12.5499470803        6.4966881127
  N        15.8077699071       19.7323181541        5.2049382488
  C        16.0763163684       21.0503684872        5.4765227928
  N        15.8099850257        8.9124158936       16.0185389710
  C        16.0810886399       10.2297360074       16.2872727330
  N        17.3638726818        6.7609703291       19.7323560432
  C        17.0923244887        6.4925745456       21.0501760218
  N        17.3662871339       17.5743337092        8.9123792168
  C        17.0971011917       17.3032976462       10.2297694648
  N         4.9968901000        6.7621669090        3.0498278123
  C         5.2672981798        6.4933230433        1.7320067995
  N         4.9983205421       17.5757304192       13.8675911050
  C         5.2669291626       17.3050664115       12.5500287091
  N        17.3659728488       16.0165614752        3.0493900677
  C        17.0938283816       16.2846065541        1.7314638922
  N        17.3683008024        5.2087600535       13.8675149328
  C        17.0995406723        5.4797876410       12.5500724291
  N         4.9989109041       16.0191207452       19.7329458348
  C         5.2703664146       16.2877694211       21.0508311712
  N         4.9966439968        5.2056111431        8.9126709190
  C         5.2660507316        5.4758332355       10.2301176397
  N        17.3651669869       19.7320639126       16.0166106128
  C        17.0932848684       21.0499440943       16.2846471504
  N        17.3680980588        8.9128184361        5.2075433040
  C        17.0995278637       10.2301596473        5.4792056307
  N         5.0005830155        3.0497481538       16.0192293102
  C         5.2713782409        1.7319336819       16.2879306035
  N         4.9981824344       13.8675502390        5.2048296914
  C         5.2667425387       12.5499618201        5.4754281735
  N        17.3649462773        3.0493286466        6.7616623072
  C        17.0930095182        1.7315698567        6.4929371625
  N        17.3674782643       13.8673369149       17.5725943288
  C        17.0977124849       12.5498749762       17.3023836926
  N         4.9948071127       19.7330287666        6.7623238547
  C         5.2660974530       21.0509042230        6.4934939334
  N         4.9964185780        8.9126426378       17.5750443429
  C         5.2660614410       10.2300547447       17.3047321800
  N        19.5240052075        6.7618272773        5.2055405917
  C        20.8418620690        6.4928056345        5.4767228147
  N         8.7033747466        6.7619248989       16.0183478835
  C        10.0207380321        6.4911083149       16.2873881647
  N         2.8417090935        6.7607266756       17.5730944838
  C         1.5239167387        6.4922644792       17.3017128911
  N        13.6583306849        6.7632538529        6.7632558842
  C        12.3408736600        6.4931343159        6.4931366186
  N         2.8417208946       16.0169300183        5.2045462476
  C         1.5236340938       16.2855933285        5.4762547242
  N        13.6588234064       16.0183011770       16.0183008826
  C        12.3412960862       16.2883142082       16.2883138473
  N        19.5246947710       16.0189979038       17.5753920963
  C        20.8426540837       16.2865719686       17.3026481857
  N         8.7033796776       16.0183421833        6.7619287129
  C        10.0207219166       16.2873788377        6.4911141435
  N         6.5545422472       17.5766809907        3.0495883013
  C         6.2863042877       17.3049261303        1.7317596580
  N         6.5517576829        6.7622449145       13.8669005611
  C         6.2815514044        6.4925838678       12.5497040353
  N         6.5513410971        5.2071741996       19.7327878410
  C         6.2826226029        5.4779992369       21.0506399570
  N         6.5513934555       16.0183151692        8.9128622091
  C         6.2815592656       16.2882398935       10.2300732407
  N        15.8097104186       17.5733092651       19.7320225746
  C        16.0775983999       17.3010109760       21.0500419688
  N        15.8132742526        6.7645770682        8.9128686914
  C        16.0844881022        6.4961769496       10.2301195855
  N        15.8088904459        5.2058924565        3.0501581393
  C        16.0770014897        5.4769892083        1.7320567258
  N        15.8114734725       16.0168421529       13.8672711327
  C        16.0817584545       16.2863468213       12.5498454294
 Zn        14.5153393503       14.7240766005       14.7240755850
 Cl        13.2847944568       13.4910752876       13.4910746503
 Zn        14.5161382735        3.9129166390        3.9129180685
 Cl        13.2768801336        2.6841030070        2.6841036255
 Zn         3.7082898127       14.7261047304        3.9090599712
 Cl         2.4784631130       13.4910941958        2.6767670547
 Zn         3.7082744803        3.9090521624       14.7261012882
 Cl         2.4784555539        2.6767631251       13.4910917470
 Zn         7.8440305408        8.0555102582       14.7238390230
 Cl         9.0769110809        9.2872725350       13.4916773142
 Zn         7.8430469478       18.8716229105        3.9135364643
 Cl         9.0811819298       20.1037587398        2.6869267064
 Zn        18.6594801694        8.0532175439        3.9107088009
 Cl        19.8885797796        9.2892551373        2.6791036952
 Zn        18.6597849420       18.8688599491       14.7258056785
 Cl        19.8902894594       20.0963517949       13.4869768003
 Zn         7.8440210506       14.7238442167        8.0555013230
 Cl         9.0769114069       13.4916781700        9.2872713047
 Zn         7.8430512284        3.9135267201       18.8716317057
 Cl         9.0811842196        2.6869226712       20.1037637005
 Zn        18.6597858773       14.7258057404       18.8688586410
 Cl        19.8902885704       13.4869780161       20.0963499347
 Zn        18.6594807334        3.9107111166        8.0532164797
 Cl        19.8885785490        2.6791041297        9.2892558272
 Zn        14.5165006910        8.0562710564        8.0562714130
 Cl        13.2910151903        9.2918255200        9.2918250851
 Zn        14.5189167942       18.8687689678       18.8687687878
 Cl        13.2821378541       20.0987558030       20.0987556506
 Zn         3.7024026087        8.0532962737       18.8689271123
 Cl         2.4684575548        9.2912476469       20.0938247374
 Zn         3.7024151823       18.8689212476        8.0532920476
 Cl         2.4684631356       20.0938197862        9.2912435316
 Zn        14.5153224844       14.7237439559        8.0553514684
 Cl        13.2866533938       13.4897188938        9.2892132133
 Zn        14.5173250560        3.9105000706       18.8675726337
 Cl        13.2792386385        2.6762858309       20.0920059794
 Zn         3.7071450869       14.7265953087       18.8704865660
 Cl         2.4749517083       13.4906639940       20.0994239085
 Zn         3.7040073868        3.9109859590        8.0537141027
 Cl         2.4722805294        2.6827554271        9.2907043882
 Zn         7.8440817249        8.0556575084        8.0556514637
 Cl         9.0773363287        9.2874906729        9.2874890742
 Zn         7.8437521047       18.8700114719       18.8700107980
 Cl         9.0841401797       20.0982451619       20.0982439311
 Zn        18.6588450633        8.0525564307       18.8703678156
 Cl        19.8860969541        9.2894749874       20.1029183514
 Zn        18.6588466447       18.8703685579        8.0525564018
 Cl        19.8860988587       20.1029185972        9.2894755344
 Zn        14.5153242655        8.0553494522       14.7237451540
 Cl        13.2866529879        9.2892127126       13.4897194997
 Zn        14.5173228167       18.8675740940        3.9104997019
 Cl        13.2792393148       20.0920066828        2.6762840142
 Zn         3.7040134914        8.0537184810        3.9109894582
 Cl         2.4722790733        9.2907079612        2.6827510123
 Zn         3.7071483359       18.8704844850       14.7265925502
 Cl         2.4749523311       20.0994247449       13.4906631440
 Zn         7.8441346042       14.7240279281       14.7240286278
 Cl         9.0765139381       13.4918318814       13.4918322276
 Zn         7.8426409007        3.9112187978        3.9112134020
 Cl         9.0786212169        2.6808291031        2.6808265850
 Zn        18.6599989384       14.7254778242        3.9123275628
 Cl        19.8920866727       13.4874780088        2.6855495067
 Zn        18.6599975309        3.9123303074       14.7254792277
 Cl        19.8920867468        2.6855494334       13.4874787401
 Zn         5.7777685396        5.9862024484       16.7992059015
 Zn        16.5948448122       16.7976530295       16.7976516524
 Zn        16.5945935178        5.9867374795        5.9867385341
 Zn         5.7777787524       16.7991870754        5.9862023563
 Zn         5.7776118104        5.9859480282        5.9859307381
 Zn        16.5942980819       16.7980492762        5.9859998709
 Zn         5.7783900008       16.7991043535       16.7991037317
 Zn        16.5943035570        5.9859999881       16.7980490332
  N         3.5882468383        5.9817655124       16.7959089194
  N        14.4054798691        5.9854968854        5.9854996314
  N        18.7783735450       16.7986265647       16.7986344562
  N         7.9570958875       16.7977670933        5.9851313296
  N        18.7777045661        5.9831434555        5.9831542939
  N         7.9570973823        5.9851396859       16.7977558328
  N         3.5882505518       16.7959128464        5.9817707976
  N        14.4057890569       16.7961515524       16.7961513808
  N        16.5880567767        3.7964566341        5.9830641688
  N        16.5893115793       14.6138267054       16.7948971663
  N        16.5886970072       18.9854528460       16.7962391559
  N        16.5899163626        8.1664905772        5.9853225850
  N         5.7724606979       18.9863343671        5.9841827644
  N         5.7740699119        8.1663644442       16.7967233931
  N         5.7767321108        3.7964052110       16.7987860529
  N         5.7754201160       14.6138475248        5.9832852205
  N         5.7767292505       16.7987850316        3.7964068971
  N         5.7754309090        5.9832820785       14.6138494752
  N        16.5887009695       16.7962354970       18.9854513355
  N        16.5899137013        5.9853249774        8.1664915843
  N         5.7724750544        5.9841665344       18.9863337953
  N         5.7740497178       16.7967404499        8.1663648945
  N        16.5880607146        5.9830668523        3.7964559812
  N        16.5893062045       16.7948927137       14.6138267687
  N         5.7744763335        3.7963663167        5.9838287631
  N         5.7758762883       14.6139417981       16.7974616013
  N        16.5868287662       18.9857542888        5.9820874107
  N        16.5876373684        8.1660512464       16.7969775948
  N         5.7751792412       18.9862688126       16.7985660687
  N         5.7740110603        8.1665049942        5.9840839920
  N        16.5896244140        3.7962078527       16.7960915451
  N        16.5903196163       14.6139652844        5.9866024141
  N         3.5890257635       16.7969924388       16.7970024355
  N        14.4054193455       16.7945324650        5.9828390107
  N        18.7778687010       16.7985742531        5.9826927997
  N         7.9573077198       16.7967485757       16.7967478547
  N        18.7778640753        5.9826940808       16.7985768525
  N         7.9572308558        5.9838177956        5.9838209140
  N         3.5877722497        5.9829090399        5.9829417274
  N        14.4054220342        5.9828406580       16.7945304376
  N        16.5868293481        5.9820896309       18.9857548367
  N        16.5876325653       16.7969706833        8.1660501696
  N        16.5896309923       16.7960864421        3.7962081450
  N        16.5903173547        5.9866025520       14.6139641512
  N         5.7744968399        5.9838066399        3.7963709048
  N         5.7758688218       16.7974662084       14.6139367035
  N         5.7751744664       16.7985627841       18.9862735862
  N         5.7740050181        5.9840659119        8.1664966658
  C        11.1810374908       15.7378397297       15.7378392281
  H        11.1807156449       14.9622390020       14.9622386854
  C        11.1816795164        4.9262705439        4.9262740306
  H        11.1823795716        4.1507323487        4.1507369954
  C         0.3622811820       15.7353752730        4.9272088207
  H         0.3612350763       14.9592747335        4.1522123086
  C         0.3622763912        4.9272084818       15.7353738130
  H         0.3612324235        4.1522099859       14.9592727202
  C        11.1808113474        7.0408140552       15.7357411036
  H        11.1804278766        7.8161180174       14.9598483926
  C        11.1811646445       17.8539413920        4.9249956345
  H        11.1811960382       18.6298426586        4.1498296325
  C         0.3626163689        7.0433293584        4.9268257953
  H         0.3627131334        7.8190527619        4.1514512255
  C         0.3635981060       17.8513688897       15.7350620946
  H         0.3635696762       18.6261700040       14.9587745773
  C        11.1808102213       15.7357422797        7.0408090717
  H        11.1804262846       14.9598455667        7.8161174659
  C        11.1811625379        4.9249945080       17.8539454971
  H        11.1811996260        4.1498311926       18.6298434735
  C         0.3635976884       15.7350620956       17.8513683725
  H         0.3635697136       14.9587759572       18.6261678405
  C         0.3626108318        4.9268243659        7.0433306025
  H         0.3627152587        4.1514531600        7.8190505970
  C        11.1804945880        7.0433145540        7.0433171614
  H        11.1795678004        7.8189173688        7.8189208065
  C        11.1814559636       17.8547840077       17.8547831646
  H        11.1813506930       18.6303101653       18.6303092271
  C         0.3636483871        7.0432811707       17.8521106234
  H         0.3647672669        7.8192049762       18.6272662202
  C         0.3636493390       17.8521107648        7.0432794840
  H         0.3647696513       18.6272652324        7.8192030534
  C        15.5311968318       11.3897499760       15.7357257481
  H        14.7559839439       11.3895595210       14.9597156264
  C        15.5259710884        0.5714981617        4.9270036035
  H        14.7503638883        0.5722335954        4.1515178781
  C         4.7162181530       11.3901149586        4.9245752766
  H         3.9414163417       11.3901121546        4.1482766178
  C         4.7216369614        0.5716424601       15.7363813480
  H         3.9471349871        0.5723428079       14.9597380234
  C        15.5347932656       11.3899204905        7.0482094906
  H        14.7597415806       11.3895620440        7.8243732376
  C        15.5271390132        0.5710523712       17.8506021414
  H        14.7515228789        0.5716052124       18.6260994365
  C         4.7160618296       11.3901625698       17.8556261303
  H         3.9407214002       11.3902482610       18.6313637166
  C         4.7165750468        0.5717570851        7.0439628967
  H         3.9410937910        0.5725408825        7.8195950887
  C         6.8322958545       11.3898311933       15.7373225261
  H         7.6078454921       11.3896229766       14.9616727028
  C         6.8342757322        0.5708827351        4.9283598873
  H         7.6109388143        0.5703675228        4.1538966323
  C        17.6497989808       11.3902488105        4.9286747468
  H        18.4244163623       11.3904727420        4.1522406375
  C        17.6429636942        0.5706002520       15.7336016558
  H        18.4182291712        0.5704117591       14.9577716778
  C         6.8314285265       11.3899381748        7.0440537480
  H         7.6063785642       11.3898168692        7.8203243872
  C         6.8364455188        0.5709636014       17.8548657406
  H         7.6120272849        0.5705210074       18.6303664986
  C        17.6481110083       11.3899045801       17.8531112186
  H        18.4236546233       11.3900197627       18.6286163010
  C        17.6423088463        0.5706656228        7.0435367554
  H        18.4175556555        0.5702963448        7.8194022419
  C        15.5311970401       15.7357254448       11.3897497716
  H        14.7559846858       14.9597160899       11.3895593604
  C        15.5259710092        4.9270027090        0.5714977436
  H        14.7503643011        4.1515170233        0.5722335383
  C         4.7216408038       15.7363828507        0.5716420102
  H         3.9471363574       14.9597371191        0.5723457697
  C         4.7162122768        4.9245728700       11.3901170611
  H         3.9414202269        4.1482814856       11.3901081556
  C         6.8322948140       15.7373260509       11.3898241701
  H         7.6078464780       14.9616732739       11.3896218378
  C         6.8342761630        4.9283567008        0.5708818872
  H         7.6109380592        4.1538935926        0.5703703630
  C        17.6429642365       15.7336012396        0.5706000141
  H        18.4182280846       14.9577728449        0.5704106113
  C        17.6497975424        4.9286741369       11.3902481523
  H        18.4244151107        4.1522393263       11.3904730868
  C        15.5347925034        7.0482090738       11.3899206969
  H        14.7597408957        7.8243723930       11.3895621720
  C        15.5271395659       17.8506015207        0.5710513198
  H        14.7515222348       18.6260998300        0.5716050093
  C         4.7165736135        7.0439620179        0.5717568988
  H         3.9410896808        7.8195959983        0.5725424192
  C         4.7160643273       17.8556261885       11.3901642587
  H         3.9407227030       18.6313643393       11.3902452219
  C         6.8314287280        7.0440573746       11.3899309110
  H         7.6063738609        7.8203206570       11.3898166288
  C         6.8364451596       17.8548636096        0.5709625895
  H         7.6120287786       18.6303660115        0.5705236397
  C        17.6423091001        7.0435361226        0.5706654496
  H        18.4175562036        7.8194014737        0.5702959262
  C        17.6481115496       17.8531110009       11.3899036919
  H        18.4236561626       18.6286171115       11.3900196953
 Kr        18.6162589813       10.6294596635       10.6294597772
