     409
 i =      96, E =    -5186.5813292345
  N         2.9317750423        5.2012678413       16.0094807666
  C         1.6137547813        5.4724796579       16.2760149568
  N        13.7585001336        5.1708274222        5.1708287202
  C        12.4375559067        5.4323316474        5.4323327760
  N        19.6169041407       17.5570248151       16.0019847478
  C        20.9346761736       17.2898771543       16.2739669103
  N         8.8007397474       17.6150909560        5.1543599592
  C        10.1173668732       17.3379904549        5.4251129548
  N        19.6127950700        5.2040467191        6.7600102422
  C        20.9304822885        5.4754436305        6.4914464801
  N         8.8007384215        5.1543611526       17.6150903670
  C        10.1173654043        5.4251137011       17.3379900298
  N         2.9294063026       17.5666199225        6.7565367545
  C         1.6122501724       17.2925798028        6.4879766571
  N        13.7631469788       17.5825777957       17.5825765127
  C        12.4420359705       17.3213426370       17.3213418281
  N        15.9243281005        3.0348150039        5.1914284398
  C        16.1912884243        1.7182269358        5.4666619185
  N        15.8869788390       13.8583768802       16.0112643445
  C        16.1572280882       12.5399849746       16.2778796430
  N        15.9234443610       19.7227509099       17.5670002858
  C        16.1905201925       21.0396283364       17.2926791536
  N        15.8833610941        8.8983737767        6.7428747302
  C        16.1547414255       10.2172875734        6.4778489964
  N         6.6196273940       19.7299680554        5.1906581261
  C         6.3541131322       21.0459013266        5.4675268722
  N         6.6472332630        8.9010239445       16.0258742938
  C         6.3774560054       10.2212024063       16.2883154042
  N         6.6243857514        3.0406207462       17.5759750212
  C         6.3604322591        1.7243561265       17.2986363214
  N         6.6579027267       13.8635380772        6.7557013301
  C         6.3858482412       12.5444424011        6.4903519453
  N         5.0826439577       16.0064387805        3.0425829221
  C         5.3533608970       16.2738747571        1.7248036330
  N         5.0938470955        5.2082785892       13.8622626754
  C         5.3640827251        5.4799511245       12.5448692456
  N        17.4677684370       16.0003298240       19.7200982781
  C        17.1994084812       16.2696351685       21.0387753312
  N        17.4496934468        5.1978667326        8.9017754229
  C        17.1773846918        5.4684813905       10.2183407443
  N         5.0772788294        6.7597403686       19.7271062587
  C         5.3471415158        6.4923888596       21.0448692731
  N         5.0833528424       17.5724545040        8.9081238402
  C         5.3556510841       17.2984955694       10.2244459985
  N        17.4682445699        6.7587448495        3.0378155824
  C        17.1995983512        6.4901901724        1.7193481129
  N        17.4537582817       17.5561702887       13.8556875052
  C        17.1801671059       17.2869370774       12.5389271679
  N         5.0765372907        3.0420177022        6.7600201991
  C         5.3464510445        1.7241054978        6.4928381002
  N         5.0881132338       13.8627333379       17.5677142782
  C         5.3581004389       12.5455110147       17.2958705918
  N        17.4675278413       19.7188768681        6.7610977229
  C        17.1997161215       21.0376700845        6.4916415439
  N        17.4504376774        8.9025519769       17.5550123615
  C        17.1779768883       10.2193594566       17.2860813430
  N         5.0837138751       19.7273493574       16.0084791757
  C         5.3541823810       21.0452306199       16.2751218852
  N         5.0895798582        8.9071615349        5.2022243555
  C         5.3620164522       10.2235631584        5.4765314097
  N        17.4669186582        3.0388237802       16.0018006679
  C        17.1985167652        1.7204274884       16.2706985033
  N        17.4529535390       13.8547264711        5.1985660387
  C        17.1795973026       12.5380127346        5.4685634524
  N         2.9327157310       16.0129622208       17.5689949077
  C         1.6151738064       16.2794426880       17.2954403118
  N        13.7428412123       16.0236949537        6.7277323614
  C        12.4286973550       16.3032913913        6.4498241035
  N        19.6156226989       16.0000726966        5.2027401957
  C        20.9330245293       16.2711715326        5.4731648220
  N         8.7906289108       16.0572230734       16.0572242776
  C        10.1106312174       16.3206878402       16.3206887022
  N        19.6134748633        6.7589251507       17.5548011933
  C        20.9315629836        6.4892480700       17.2869911647
  N         8.7887282644        6.7005576907        6.7005565567
  C        10.1080765225        6.4353102762        6.4353097349
  N         2.9290520093        6.7595615996        5.2032753948
  C         1.6113835269        6.4910288028        5.4749664741
  N        13.7428395088        6.7277326318       16.0236959082
  C        12.4286959358        6.4498242915       16.3032920425
  N        15.9241492940        5.1935957915       19.7222346380
  C        16.1914987356        5.4679491031       21.0388545812
  N        15.8836466707       16.0105771207        8.9001212537
  C        16.1549548394       16.2771317459       10.2187292148
  N        15.9216900809       17.5679450521        3.0363553218
  C        16.1893942479       17.2934456541        1.7195226469
  N        15.8871416669        6.7445674715       13.8572915760
  C        16.1572366865        6.4782381445       12.5387715796
  N         6.6168891468        5.1890204789        3.0387494037
  C         6.3526085464        5.4672317945        1.7229948256
  N         6.6515420664       16.0200823020       13.8645880476
  C         6.3796417672       16.2852543831       12.5452404207
  N         6.6269499867       17.5767313009       19.7303054001
  C         6.3618513909       17.2993500743       21.0465002702
  N         6.6546067394        6.7478830926        8.9000092663
  C         6.3842681773        6.4862455722       10.2200723134
  N        19.6134764291       17.5548008337        6.7589242454
  C        20.9315647703       17.2869908139        6.4892471028
  N         8.8035202650       17.6114607154       17.6114595253
  C        10.1198583112       17.3365905227       17.3365898616
  N         2.9290518460        5.2032752562        6.7595609912
  C         1.6113837110        5.4749662854        6.4910286475
  N        13.7604247225        5.1763381019       17.5845452034
  C        12.4394868794        5.4371164223       17.3221982263
  N         2.9327156903       17.5689958732       16.0129614495
  C         1.6151737984       17.2954411771       16.2794420460
  N        13.7604258247       17.5845446609        5.1763381767
  C        12.4394883209       17.3221977812        5.4371164967
  N        19.6156211721        5.2027406854       16.0000731787
  C        20.9330228329        5.4731655811       16.2711721024
  N         8.7983507849        5.1461401439        5.1461410355
  C        10.1153066106        5.4193506039        5.4193516040
  N         6.6269495250       19.7303064679       17.5767307559
  C         6.3618502294       21.0465010650       17.2993500818
  N         6.6546089923        8.9000094975        6.7478823770
  C         6.3842673190       10.2200725680        6.4862474672
  N         6.6168887425        3.0387491003        5.1890200018
  C         6.3526086503        1.7229941507        5.4672314400
  N         6.6515418021       13.8645881405       16.0200816058
  C         6.3796413626       12.5452406942       16.2852540282
  N        15.9216887310        3.0363556300       17.5679456374
  C        16.1893931805        1.7195230008       17.2934463372
  N        15.8871429616       13.8572913979        6.7445669176
  C        16.1572375877       12.5387713338        6.4782378779
  N        15.9241507450       19.7222341825        5.1935959070
  C        16.1914998793       21.0388540489        5.4679496410
  N        15.8836452215        8.9001217177       16.0105773922
  C        16.1549538387       10.2187295926       16.2771319287
  N        17.4675262041        6.7610976062       19.7188775622
  C        17.1997149049        6.4916410104       21.0376707112
  N        17.4504390960       17.5550118994        8.9025517837
  C        17.1779778710       17.2860810560       10.2193592037
  N         5.0765377282        6.7600207990        3.0420186236
  C         5.3464509577        6.4928384199        1.7241063249
  N         5.0881136449       17.5677151170       13.8627324669
  C         5.3581009788       17.2958709603       12.5455104018
  N        17.4669201002       16.0017999576        3.0388231945
  C        17.1985178641       16.2706977600        1.7204269537
  N        17.4529521898        5.1985663924       13.8547271874
  C        17.1795962997        5.4685635686       12.5380133785
  N         5.0837143871       16.0084797999       19.7273485343
  C         5.3541835100       16.2751218179       21.0452298789
  N         5.0895776643        5.2022246815        8.9071614300
  C         5.3620175376        5.4765291187       10.2235631162
  N        17.4677682639       19.7200987269       16.0003296725
  C        17.1994081078       21.0387759608       16.2696353183
  N        17.4496941959        8.9017748051        5.1978667223
  C        17.1773854572       10.2183402507        5.4684813292
  N         5.0826425217        3.0425838411       16.0064389099
  C         5.3533591807        1.7248045375       16.2738752451
  N         5.0938482772       13.8622632143        5.2082773602
  C         5.3640815389       12.5448695609        5.4799523169
  N        17.4682442171        3.0378150525        6.7587453376
  C        17.1995985447        1.7193477898        6.4901907136
  N        17.4537580060       13.8556877723       17.5561696450
  C        17.1801665791       12.5389275865       17.2869367396
  N         5.0772795661       19.7271051234        6.7597395666
  C         5.3471421581       21.0448684459        6.4923882648
  N         5.0833513691        8.9081247763       17.5724550634
  C         5.3556501461       10.2244468296       17.2984957605
  N        19.6127951216        6.7600095060        5.2040476721
  C        20.9304820843        6.4914459713        5.4754443101
  N         8.7895302001        6.7036644182       16.0560033791
  C        10.1092075267        6.4379546011       16.3190324490
  N         2.9294048320        6.7565380816       17.5666206793
  C         1.6122485768        6.4879779442       17.2925804547
  N        13.7415062737        6.7264161353        6.7264153275
  C        12.4273256682        6.4480455810        6.4480451915
  N         2.9317764792       16.0094801043        5.2012665645
  C         1.6137564056       16.2760142209        5.4724785344
  N        13.7441952569       16.0260236018       16.0260238688
  C        12.4302750437       16.3054635008       16.3054639279
  N        19.6169041871       16.0019848649       17.5570241545
  C        20.9346762806       16.2739672951       17.2898764417
  N         8.7895321079       16.0560035759        6.7036633259
  C        10.1092089793       16.3190326776        6.4379537748
  N         6.6243869174       17.5759747709        3.0406197888
  C         6.3604338833       17.2986357415        1.7243552253
  N         6.6579012749        6.7557027864       13.8635378601
  C         6.3858492561        6.4903509533       12.5444421876
  N         6.6196268673        5.1906588705       19.7299684856
  C         6.3541125388        5.4675274090       21.0459019918
  N         6.6472349708       16.0258738675        8.9010238193
  C         6.3774569817       16.2883151577       10.2212023314
  N        15.9234442271       17.5670003156       19.7227508305
  C        16.1905204687       17.2926788688       21.0396280813
  N        15.8833605132        6.7428749023        8.8983739852
  C        16.1547407666        6.4778490906       10.2172879219
  N        15.9243283331        5.1914282014        3.0348156940
  C        16.1912882109        5.4666613980        1.7182275777
  N        15.8869791107       16.0112649316       13.8583764122
  C        16.1572286090       16.2778798675       12.5399845335
 Zn        14.5923034524       14.7244496530       14.7244492401
 Cl        13.3701823796       13.4872701723       13.4872700667
 Zn        14.6403647567        3.8886726342        3.8886732662
 Cl        13.4190736956        2.6498814904        2.6498823656
 Zn         3.7951130604       14.7157831279        3.9110079140
 Cl         2.5746433511       13.4639746550        2.6868377999
 Zn         3.7951116303        3.9110090073       14.7157836294
 Cl         2.5746420212        2.6868386116       13.4639759155
 Zn         7.9489157016        8.0075414158       14.7727279058
 Cl         9.3266115429        9.2125997147       13.6854142691
 Zn         7.9078103625       18.8914047533        3.8796183155
 Cl         9.0914628442       20.1476724005        2.6237432082
 Zn        18.7530866255        8.0526634207        3.9081714433
 Cl        19.9891964755        9.2909460305        2.6859533938
 Zn        18.7551075289       18.8446829194       14.7108046795
 Cl        19.9895000760       20.0681451173       13.4705392857
 Zn         7.9489168226       14.7727275675        8.0075414624
 Cl         9.3266118219       13.6854127873        9.2125983791
 Zn         7.9078088723        3.8796189284       18.8914052251
 Cl         9.0914608078        2.6237438658       20.1476728474
 Zn        18.7551079520       14.7108048535       18.8446818785
 Cl        19.9895003024       13.4705395025       20.0681441153
 Zn        18.7530863460        3.9081713100        8.0526640945
 Cl        19.9891960933        2.6859534920        9.2909469232
 Zn        14.5887606462        8.0241388291        8.0241386038
 Cl        13.3630175801        9.2606675212        9.2606669764
 Zn        14.6400977681       18.8709545476       18.8709545906
 Cl        13.4124772149       20.1060636514       20.1060638293
 Zn         3.7872175519        8.0519786913       18.8633377658
 Cl         2.5557766459        9.2873646660       20.0928054784
 Zn         3.7872186038       18.8633364103        8.0519781042
 Cl         2.5557776698       20.0928048090        9.2873634920
 Zn        14.5911626778       14.7233386282        8.0270595102
 Cl        13.3665192103       13.4874385650        9.2640822027
 Zn        14.6383728743        3.8926813751       18.8728584855
 Cl        13.4131282449        2.6538998726       20.1069662094
 Zn         3.7924612966       14.7186135648       18.8620532563
 Cl         2.5664070809       13.4775479291       20.0915953593
 Zn         3.7900761310        3.9088436997        8.0539302556
 Cl         2.5643346435        2.6849766202        9.3004010071
 Zn         7.9514999026        7.9965685696        7.9965685362
 Cl         9.3369073190        9.1390706621        9.1390762680
 Zn         7.9128673803       18.8886393295       18.8886389014
 Cl         9.1035095854       20.1413552534       20.1413549258
 Zn        18.7524687237        8.0539221386       18.8422451842
 Cl        19.9876277213        9.2903149664       20.0685515608
 Zn        18.7524712809       18.8422444488        8.0539216406
 Cl        19.9876299236       20.0685511784        9.2903146530
 Zn        14.5911614282        8.0270600255       14.7233387811
 Cl        13.3665188068        9.2640825489       13.4874388196
 Zn        14.6383750769       18.8728582942        3.8926808708
 Cl        13.4131303139       20.1069652003        2.6538996517
 Zn         3.7900760799        8.0539301585        3.9088446113
 Cl         2.5643345180        9.3004005629        2.6849772869
 Zn         3.7924612737       18.8620540853       14.7186129773
 Cl         2.5664071871       20.0915960442       13.4775469647
 Zn         7.9473922846       14.7652561544       14.7652559865
 Cl         9.3176926295       13.6129730673       13.6129676382
 Zn         7.9026684493        3.8707366188        3.8707375293
 Cl         9.0790699079        2.6116712323        2.6116714912
 Zn        18.7545892890       14.7112696772        3.9074684599
 Cl        19.9898975413       13.4699784830        2.6870231534
 Zn        18.7545875705        3.9074690964       14.7112702116
 Cl        19.9898965204        2.6870235422       13.4699796929
 Zn         5.8575174885        5.9618585740       16.8110095657
 Zn        16.6773258786       16.7824473792       16.7824468251
 Zn        16.6774041090        5.9659925284        5.9659929336
 Zn         5.8575195470       16.8110090262        5.9618576595
 Zn         5.8556623753        5.9582715450        5.9582716554
 Zn        16.6766983747       16.7818433066        5.9679209913
 Zn         5.8608738114       16.8087657991       16.8087651392
 Zn        16.6766968364        5.9679215026       16.7818439785
  N         3.6769684384        5.9781743185       16.7899575049
  N        14.4964282879        5.9528705287        5.9528709050
  N        18.8700258783       16.7782628861       16.7782622507
  N         8.0485407241       16.8384384241        5.9289956122
  N        18.8662259562        5.9812971952        5.9812973901
  N         8.0485392440        5.9289944048       16.8384402335
  N         3.6769701154       16.7899563839        5.9781741612
  N        14.4997352316       16.7996979030       16.7996975723
  N        16.6964979212        3.7828807099        5.9730731380
  N        16.6711562329       14.6032648284       16.7842795364
  N        16.6956722926       18.9745989844       16.7853584079
  N        16.6669195510        8.1535523931        5.9688866609
  N         5.8470850258       18.9825253403        5.9719523825
  N         5.8650830423        8.1578023794       16.8027235051
  N         5.8514811313        3.7877564913       16.7946801441
  N         5.8760743626       14.6099242979        5.9796383547
  N         5.8514835940       16.7946790223        3.7877556696
  N         5.8760727282        5.9796367138       14.6099241090
  N        16.6956725703       16.7853578700       18.9745985862
  N        16.6669194131        5.9688861280        8.1535528428
  N         5.8470827322        5.9719526316       18.9825261423
  N         5.8650846370       16.8027218631        8.1578019412
  N        16.6964976803        5.9730718999        3.7828812247
  N        16.6711560224       16.7842796335       14.6032644293
  N         5.8452664730        3.7864550662        5.9709436445
  N         5.8705757453       14.6105354146       16.7964014617
  N        16.6955989968       18.9737204900        5.9756733279
  N        16.6676500835        8.1548211201       16.7835053713
  N         5.8536373639       18.9827648612       16.7961136643
  N         5.8723859994        8.1567328827        5.9702646308
  N        16.6943775319        3.7841514898       16.7864848382
  N        16.6706312095       14.6022351282        5.9707263617
  N         3.6791970746       16.7928023045       16.7928017406
  N        14.4978279128       16.7998552907        5.9564379939
  N        18.8678129078       16.7766674453        5.9806894111
  N         8.0505759937       16.8362464443       16.8362467198
  N        18.8678111987        5.9806903073       16.7766686171
  N         8.0469909674        5.9223383201        5.9223389431
  N         3.6753302767        5.9804952127        5.9804961228
  N        14.4978265029        5.9564403179       16.7998541213
  N        16.6955979526        5.9756742771       18.9737210193
  N        16.6676519895       16.7835052878        8.1548207315
  N        16.6943786934       16.7864844410        3.7841509594
  N        16.6706294764        5.9707274528       14.6022355693
  N         5.8452660266        5.9709424010        3.7864557278
  N         5.8705753806       16.7964021945       14.6105349666
  N         5.8536371918       16.7961138526       18.9827641114
  N         5.8723901967        5.9702612602        8.1567326727
  C        11.2637805186       15.7629376607       15.7629392373
  H        11.2484817483       14.9874649990       14.9874676443
  C        11.2824998054        4.8753386445        4.8753404406
  H        11.2946584657        4.0999724931        4.0999749392
  C         0.4543181700       15.7225256404        4.9230481277
  H         0.4552300052       14.9460626629        4.1484218591
  C         0.4543168869        4.9230490548       15.7225263665
  H         0.4552285439        4.1484227061       14.9460634383
  C        11.2629558939        6.9921514790       15.7591978113
  H        11.2487787868        7.7671769352       14.9833174534
  C        11.2848844519       17.8819890121        4.8821002490
  H        11.2971649482       18.6597486752        4.1091188903
  C         0.4509100145        7.0421300274        4.9253804107
  H         0.4505664190        7.8180682950        4.1501942850
  C         0.4548787057       17.8427748798       15.7258304232
  H         0.4545126782       18.6177141051       14.9496387222
  C        11.2629565663       15.7591975848        6.9921508488
  H        11.2487807995       14.9833170942        7.7671761688
  C        11.2848822595        4.8821004909       17.8819888855
  H        11.2971639354        4.1091190786       18.6597484827
  C         0.4548788773       15.7258308479       17.8427739180
  H         0.4545128013       14.9496390479       18.6177129966
  C         0.4509104743        4.9253798562        7.0421300706
  H         0.4505666228        4.1501936206        7.8180681919
  C        11.2622144794        6.9917605093        6.9917590034
  H        11.2488097520        7.7672083525        7.7672054049
  C        11.2879827951       17.8793457668       17.8793443476
  H        11.3007885689       18.6547153672       18.6547131071
  C         0.4508918724        7.0392457849       17.8400151820
  H         0.4493092663        7.8148754151       18.6155429475
  C         0.4508936759       17.8400148960        7.0392445144
  H         0.4493109200       18.6155428634        7.8148739216
  C        15.6021771272       11.3799879580       15.7303041578
  H        14.8226380166       11.3813228005       14.9586675265
  C        15.6443323264        0.5582250982        4.9132327599
  H        14.8742269819        0.5580138444        4.1321410035
  C         4.8099683289       11.3854495320        4.9315937931
  H         4.0318512531       11.3875546216        4.1584364710
  C         4.8086340791        0.5645651724       15.7180445370
  H         4.0391465007        0.5636027077       14.9366442163
  C        15.6022854524       11.3784532137        7.0256444458
  H        14.8227563803       11.3794558876        7.7974206987
  C        15.6425357521        0.5591760057       17.8465615632
  H        14.8715719761        0.5587744756       18.6267573092
  C         4.8040961008       11.3861306971       17.8443635002
  H         4.0265144422       11.3880803237       18.6179508657
  C         4.8017673026        0.5642756591        7.0494016807
  H         4.0325481452        0.5636227559        7.8310788800
  C         6.9320997112       11.3820231417       15.7404597372
  H         7.7179209756       11.3784766519       14.9758011220
  C         6.9004014653        0.5647048827        4.9120551650
  H         7.6677824654        0.5653514970        4.1279781787
  C        17.7325023838       11.3777288937        4.9218904682
  H        18.5128309065       11.3770835321        4.1512434791
  C        17.7449785390        0.5600267967       15.7154570102
  H        18.5151368141        0.5610311786       14.9346536121
  C         6.9381816175       11.3809144186        7.0346756099
  H         7.7225659146       11.3771529068        7.8004625679
  C         6.9086463353        0.5658854901       17.8535933428
  H         7.6768600522        0.5668787811       18.6368173624
  C        17.7334536902       11.3784818005       17.8331325427
  H        18.5143394650       11.3775190166       18.6033645822
  C        17.7453260675        0.5588498579        7.0459752431
  H        18.5150802685        0.5597229996        7.8271368895
  C        15.6021778916       15.7303041944       11.3799877246
  H        14.8226387497       14.9586676102       11.3813221060
  C        15.6443317190        4.9132321544        0.5582261247
  H        14.8742264088        4.1321403252        0.5580145181
  C         4.8086356267       15.7180440591        0.5645641703
  H         4.0391482219       14.9366436185        0.5636020210
  C         4.8099699343        4.9315916839       11.3854498368
  H         4.0318525347        4.1584348581       11.3875540239
  C         6.9321004480       15.7404597689       11.3820229841
  H         7.7179218094       14.9758012959       11.3784774331
  C         6.9004010818        4.9120555939        0.5647052661
  H         7.6677819775        4.1279785100        0.5653513747
  C        17.7449792803       15.7154566099        0.5600259465
  H        18.5151376738       14.9346532593        0.5610302067
  C        17.7325014465        4.9218905110       11.3777294860
  H        18.5128299534        4.1512434175       11.3770845999
  C        15.6022847016        7.0256447255       11.3784535945
  H        14.8227557233        7.7974210373       11.3794556898
  C        15.6425363683       17.8465610641        0.5591762051
  H        14.8715725648       18.6267568037        0.5587747307
  C         4.8017669312        7.0494020937        0.5642765985
  H         4.0325476613        7.8310792176        0.5636243439
  C         4.8040968767       17.8443636736       11.3861296934
  H         4.0265153009       18.6179512475       11.3880787147
  C         6.9381827258        7.0346738744       11.3809135715
  H         7.7225664571        7.8004614786       11.3771527026
  C         6.9086478846       17.8535929584        0.5658845300
  H         7.6768616441       18.6368168976        0.5668777222
  C        17.7453254630        7.0459746991        0.5588500341
  H        18.5150796683        7.8271362377        0.5597234789
  C        17.7334544835       17.8331326209       11.3784814554
  H        18.5143402409       18.6033646226       11.3775188735
 Kr        10.5541257609       11.3714610429       11.3714612364
