     409
 i =      96, E =    -5186.5835963360
  N         3.0177556097        5.2064354534       16.0195915389
  C         1.6994781050        5.4777317917       16.2872787996
  N        13.8299347021        5.2038598442        5.2038620360
  C        12.5123836136        5.4744925226        5.4744954177
  N        19.7017123632       17.5725655369       16.0159805561
  C        21.0198449635       17.3018368894       16.2856702200
  N         8.8779417487       17.5756274666        5.2066073825
  C        10.1957399017       17.3041200089        5.4752006768
  N        19.6953705836        5.2033798783        6.7598142931
  C        21.0133721271        5.4765343340        6.4926579754
  N         8.8779426324        5.2066057862       17.5756269604
  C        10.1957388109        5.4752002086       17.3041196868
  N         3.0161519791       17.5759458629        6.7630112884
  C         1.6983738763       17.3034283803        6.4937967994
  N        13.8388457755       17.5732652238       17.5732649926
  C        12.5207648907       17.3036317366       17.3036314013
  N        15.9804826736        3.0466206351        5.2034603070
  C        16.2491030203        1.7288176984        5.4751008481
  N        15.9887998998       13.8646209532       16.0155786656
  C        16.2577461065       12.5472525660       16.2857158271
  N        15.9897298931       19.7295677701       17.5716616931
  C        16.2561123286       21.0475819517       17.2990919955
  N        15.9828242651        8.9103593388        6.7590886055
  C        16.2522965448       10.2275994067        6.4886290082
  N         6.7270982633       19.7346346749        5.2075092432
  C         6.4577569369       21.0523204359        5.4784186618
  N         6.7273827764        8.9140262030       16.0186276055
  C         6.4579236333       10.2313219114       16.2882580860
  N         6.7275685429        3.0510538068       17.5771322835
  C         6.4610227462        1.7330757691       17.3048262147
  N         6.7238078967       13.8678341238        6.7654354243
  C         6.4527211548       12.5507037019        6.4967538619
  N         5.1745685089       16.0192166009        3.0502587249
  C         5.4464234499       16.2875694513        1.7325991734
  N         5.1707174853        5.2081323090       13.8686537161
  C         5.4380763847        5.4795984100       12.5511214776
  N        17.5433132165       16.0141485336       19.7303389493
  C        17.2710333348       16.2820760080       21.0480606289
  N        17.5375330418        5.2025745842        8.9098110789
  C        17.2677649289        5.4721957598       10.2272725091
  N         5.1729676633        6.7644849513       19.7340376262
  C         5.4426456046        6.4952658314       21.0519088054
  N         5.1735971394       17.5759438614        8.9142790583
  C         5.4431258186       17.3053615197       10.2315649434
  N        17.5362282351        6.7591924860        3.0470683524
  C        17.2650754461        6.4910630552        1.7292712418
  N        17.5436737506       17.5718285804       13.8644016373
  C        17.2733323199       17.3020555993       12.5470275279
  N         5.1699177793        3.0504143563        6.7638984387
  C         5.4409860528        1.7326886467        6.4950578213
  N         5.1755965268       13.8685996146       17.5761260730
  C         5.4440506783       12.5511101565       17.3054081337
  N        17.5395123960       19.7307651788        6.7594943145
  C        17.2669037852       21.0483439395        6.4912805733
  N        17.5410903743        8.9097923964       17.5728296444
  C        17.2720232145       10.2272860927       17.3024735159
  N         5.1775000614       19.7338885960       16.0186091021
  C         5.4480225618       21.0517010484       16.2873108034
  N         5.1682466557        8.9143615431        5.2086984079
  C         5.4368654050       10.2316755144        5.4798703765
  N        17.5405866573        3.0470327097       16.0140668778
  C        17.2695036787        1.7291213036       16.2820657429
  N        17.5402915677       13.8643293355        5.2035161468
  C        17.2691533038       12.5469951187        5.4725744087
  N         3.0202257570       16.0201353081       17.5766816846
  C         1.7021715350       16.2876891899       17.3037983891
  N        13.8343547647       16.0164839952        6.7591772663
  C        12.5167835782       16.2867335066        6.4894037317
  N        19.6994597432       16.0159313277        5.2039848882
  C        21.0172786940       16.2853709088        5.4762712123
  N         8.8809222669       16.0188609276       16.0188604005
  C        10.1987396734       16.2885212690       16.2885204160
  N        19.6978826668        6.7596340756       17.5733222282
  C        21.0162121509        6.4919926305       17.3019327577
  N         8.8752733361        6.7624708531        6.7624746759
  C        10.1925591042        6.4918608710        6.4918615364
  N         3.0133155482        6.7640347392        5.2076997711
  C         1.6953295975        6.4947571072        5.4786568273
  N        13.8343464802        6.7591792179       16.0164821650
  C        12.5167818682        6.4894041777       16.2867325022
  N        15.9849739223        5.2028741909       19.7294948368
  C        16.2513401122        5.4749086210       21.0476142727
  N        15.9866538845       16.0160897055        8.9103835356
  C        16.2566325882       16.2859667607       10.2276069226
  N        15.9861810455       17.5708822182        3.0463766225
  C        16.2542993482       17.2987699060        1.7286478515
  N        15.9851822810        6.7595439709       13.8646671962
  C        16.2535008604        6.4888409764       12.5472722670
  N         6.7234792138        5.2066550696        3.0509366346
  C         6.4558732977        5.4780947539        1.7331010217
  N         6.7286510632       16.0185759671       13.8680669484
  C         6.4586261550       16.2881577213       12.5508083485
  N         6.7311671447       17.5762642567       19.7342903549
  C         6.4628757009       17.3044439215       21.0520766812
  N         6.7221318620        6.7656919883        8.9143602787
  C         6.4517562759        6.4968602570       10.2315244124
  N        19.6978777199       17.5733191391        6.7596322656
  C        21.0162149724       17.3019313895        6.4919925212
  N         8.8817930153       17.5752726430       17.5752723398
  C        10.1994542195       17.3046101804       17.3046092858
  N         3.0133120462        5.2077011247        6.7640326397
  C         1.6953301870        5.4786565463        6.4947570390
  N        13.8347173604        5.2029764598       17.5726805978
  C        12.5168671273        5.4734987098       17.3029431124
  N         3.0202261487       17.5766838062       16.0201327789
  C         1.7021716558       17.3038001808       16.2876874030
  N        13.8347236672       17.5726753932        5.2029818172
  C        12.5168685171       17.3029420971        5.4735005603
  N        19.6994624907        5.2039793855       16.0159274913
  C        21.0172750546        5.4762694393       16.2853706840
  N         8.8737483332        5.2063018584        5.2063069249
  C        10.1915924064        5.4758295321        5.4758308949
  N         6.7311666794       19.7342906880       17.5762624062
  C         6.4628759723       21.0520754329       17.3044417929
  N         6.7221252029        8.9143618111        6.7657004269
  C         6.4517501487       10.2315288972        6.4968665202
  N         6.7234792413        3.0509359485        5.2066590433
  C         6.4558721248        1.7330994061        5.4780949773
  N         6.7286542581       13.8680699464       16.0185772804
  C         6.4586299976       12.5508134631       16.2881606080
  N        15.9861757210        3.0463709592       17.5708868852
  C        16.2542971718        1.7286462499       17.2987712496
  N        15.9851883642       13.8646724076        6.7595399775
  C        16.2535031908       12.5472740667        6.4888407034
  N        15.9849787609       19.7294882678        5.2028784090
  C        16.2513419888       21.0476118630        5.4749105128
  N        15.9866479714        8.9103891950       16.0160857001
  C        16.2566304950       10.2276091077       16.2859655662
  N        17.5395151484        6.7594981253       19.7307722354
  C        17.2669038345        6.4912808316       21.0483464713
  N        17.5410883576       17.5728255157        8.9097849851
  C        17.2720230858       17.3024725528       10.2272837230
  N         5.1699190332        6.7638944393        3.0504146921
  C         5.4409875183        6.4950579855        1.7326896624
  N         5.1755927685       17.5761252594       13.8685972256
  C         5.4440471308       17.3054051372       12.5511051260
  N        17.5405843250       16.0140703725        3.0470387806
  C        17.2695039682       16.2820665367        1.7291227440
  N        17.5402932943        5.2035120396       13.8643224099
  C        17.2691529597        5.4725726133       12.5469933896
  N         5.1774997235       16.0186107157       19.7338892309
  C         5.4480222650       16.2873130390       21.0517027070
  N         5.1682540105        5.2086900586        8.9143603732
  C         5.4368709941        5.4798633102       10.2316701406
  N        17.5433136096       19.7303391216       16.0141475781
  C        17.2710333211       21.0480617647       16.2820755181
  N        17.5375337240        8.9098108765        5.2025755012
  C        17.2677654215       10.2272713258        5.4721970230
  N         5.1745696997        3.0502575005       16.0192081292
  C         5.4464190864        1.7325999676       16.2875698911
  N         5.1707077866       13.8686590349        5.2081466099
  C         5.4380755437       12.5511237764        5.4796021978
  N        17.5362268614        3.0470661218        6.7591927383
  C        17.2650751483        1.7292713084        6.4910639294
  N        17.5436744167       13.8644037578       17.5718286958
  C        17.2733323086       12.5470273300       17.3020554317
  N         5.1729678625       19.7340396220        6.7644762238
  C         5.4426501008       21.0519100183        6.4952685935
  N         5.1736031021        8.9142817138       17.5759566755
  C         5.4431229630       10.2315673911       17.3053602687
  N        19.6953706719        6.7598127626        5.2033819718
  C        21.0133717359        6.4926573290        5.4765353319
  N         8.8783278686        6.7614739520       16.0179181204
  C        10.1958828591        6.4905537980       16.2873547687
  N         3.0161526682        6.7630120724       17.5759515949
  C         1.6983699760        6.4937981073       17.3034287284
  N        13.8309253446        6.7598958532        6.7598974287
  C        12.5131537869        6.4905202800        6.4905228406
  N         3.0177598435       16.0195899438        5.2064391801
  C         1.6994826005       16.2872795356        5.4777318920
  N        13.8372533247       16.0169814709       16.0169815559
  C        12.5198657284       16.2875714853       16.2875714904
  N        19.7017106669       16.0159801184       17.5725656361
  C        21.0198447907       16.2856711917       17.3018356788
  N         8.8783307882       16.0179235754        6.7614697983
  C        10.1958844453       16.2873562796        6.4905525724
  N         6.7275624460       17.5771359763        3.0510534130
  C         6.4610261855       17.3048250372        1.7330751042
  N         6.7238220542        6.7654262992       13.8678334160
  C         6.4527233138        6.4967519710       12.5507021640
  N         6.7271025235        5.2075129627       19.7346377514
  C         6.4577527196        5.4784154347       21.0523199927
  N         6.7273721602       16.0186192186        8.9140219362
  C         6.4579258755       16.2882596491       10.2313192078
  N        15.9897297108       17.5716622981       19.7295677494
  C        16.2561131709       17.2990916905       21.0475809762
  N        15.9828235515        6.7590881116        8.9103587890
  C        16.2522954961        6.4886284924       10.2276002417
  N        15.9804838376        5.2034597465        3.0466209598
  C        16.2491026230        5.4750992872        1.7288173149
  N        15.9887994451       16.0155787692       13.8646208520
  C        16.2577467285       16.2857165708       12.5472529210
 Zn        14.6977458019       14.7225311330       14.7225310129
 Cl        13.4631074367       13.4912459239       13.4912454448
 Zn        14.6909210143        3.9088341529        3.9088342270
 Cl        13.4514031843        2.6800750004        2.6800759661
 Zn         3.8841976226       14.7271485500        3.9112576108
 Cl         2.6499126381       13.4921983684        2.6830937851
 Zn         3.8841941789        3.9112580238       14.7271477160
 Cl         2.6499117575        2.6830943374       13.4921987297
 Zn         8.0170003293        8.0558938791       14.7239320265
 Cl         9.2500600409        9.2874638920       13.4913973613
 Zn         8.0149958950       18.8718046183        3.9135674506
 Cl         9.2542017448       20.0997139904        2.6833480890
 Zn        18.8290734014        8.0508602702        3.9079945947
 Cl        20.0596872121        9.2864999988        2.6772137715
 Zn        18.8342389806       18.8669635634       14.7233786481
 Cl        20.0664882600       20.0941610946       13.4855343856
 Zn         8.0170008993       14.7239327583        8.0558935101
 Cl         9.2500616256       13.4913964332        9.2874645485
 Zn         8.0149944394        3.9135658515       18.8718035011
 Cl         9.2541995412        2.6833500517       20.0997127537
 Zn        18.8342394741       14.7233781045       18.8669608727
 Cl        20.0664882075       13.4855347672       20.0941605254
 Zn        18.8290741103        3.9079964185        8.0508616199
 Cl        20.0596860012        2.6772138396        9.2865007374
 Zn        14.6912274625        8.0535747977        8.0535754149
 Cl        13.4588972486        9.2859276512        9.2859274131
 Zn        14.7036319979       18.8676218657       18.8676210080
 Cl        13.4645457556       20.0967901630       20.0967902618
 Zn         3.8830572062        8.0552534640       18.8705977818
 Cl         2.6508307192        9.2925464892       20.0984537252
 Zn         3.8830604523       18.8705984462        8.0552534773
 Cl         2.6508303572       20.0984539874        9.2925460956
 Zn        14.6947300819       14.7225747642        8.0535094784
 Cl        13.4611035591       13.4910355656        9.2854992175
 Zn        14.6986589202        3.9075796353       18.8665338197
 Cl        13.4587439386        2.6780311832       20.0944503088
 Zn         3.8866580910       14.7270797945       18.8713042658
 Cl         2.6535306630       13.4915212755       20.0999210645
 Zn         3.8800157225        3.9124368906        8.0552166633
 Cl         2.6469730289        2.6846429875        9.2918410733
 Zn         8.0149676846        8.0565205277        8.0565161936
 Cl         9.2482231546        9.2884491038        9.2884493932
 Zn         8.0186863190       18.8704879601       18.8704891502
 Cl         9.2600990074       20.0984146767       20.0984134657
 Zn        18.8311432970        8.0509421053       18.8687109021
 Cl        20.0638348409        9.2873372008       20.0967676351
 Zn        18.8311422447       18.8687049987        8.0509366155
 Cl        20.0638326507       20.0967639465        9.2873338829
 Zn        14.6947258616        8.0535146043       14.7225706631
 Cl        13.4610992229        9.2855021459       13.4910328774
 Zn        14.6986644170       18.8665294637        3.9075830181
 Cl        13.4587477891       20.0944469616        2.6780336021
 Zn         3.8800148777        8.0552195999        3.9124368254
 Cl         2.6469721067        9.2918418111        2.6846415389
 Zn         3.8866579883       18.8713029711       14.7270768477
 Cl         2.6535309717       20.0999217547       13.4915197154
 Zn         8.0188048996       14.7244728864       14.7244709177
 Cl         9.2515113951       13.4922157758       13.4922157197
 Zn         8.0115965179        3.9118201612        3.9118189753
 Cl         9.2488603334        2.6818643933        2.6818648017
 Zn        18.8323438363       14.7233031734        3.9097282264
 Cl        20.0625232501       13.4861405492        2.6798612986
 Zn        18.8323460298        3.9097246174       14.7232997357
 Cl        20.0625246197        2.6798585883       13.4861390892
 Zn         5.9495289641        5.9878965353       16.8010231447
 Zn        16.7694451604       16.7931279427       16.7931268599
 Zn        16.7643040492        5.9812045823        5.9812058862
 Zn         5.9495280249       16.8010270965        5.9878931429
 Zn         5.9469218892        5.9879589099        5.9879598074
 Zn        16.7670929836       16.7934030819        5.9815997309
 Zn         5.9519041160       16.8009952802       16.8009928785
 Zn        16.7670918413        5.9815996699       16.7934040612
  N         3.7632164674        5.9840996645       16.7991464410
  N        14.5769226815        5.9816048455        5.9816048303
  N        18.9554547075       16.7945895932       16.7945887715
  N         8.1318937742       16.7974138228        5.9847049889
  N        18.9490838719        5.9799378537        5.9799367831
  N         8.1318898634        5.9847059850       16.7974127021
  N         3.7632187075       16.7991466810        5.9840955165
  N        14.5844152682       16.7948466116       16.7948462790
  N        16.7592549123        3.7934944575        5.9803184621
  N        16.7666120123       14.6110235554       16.7935585476
  N        16.7681665142       18.9831461029       16.7943017990
  N        16.7603403680        8.1635800555        5.9811487257
  N         5.9499974905       18.9876897534        5.9856436882
  N         5.9506691808        8.1677446834       16.7976278024
  N         5.9496450085        3.7974494655       16.7992784114
  N         5.9485290412       14.6149709442        5.9858827964
  N         5.9496518108       16.7992763138        3.7974458088
  N         5.9485162624        5.9858973615       14.6149713185
  N        16.7681685898       16.7943005149       18.9831453182
  N        16.7603406880        5.9811486294        8.1635813345
  N         5.9499901028        5.9856428542       18.9876864572
  N         5.9506804594       16.7976369277        8.1677437811
  N        16.7592530628        5.9803157670        3.7934946367
  N        16.7666121237       16.7935598780       14.6110238647
  N         5.9459465514        3.7974777278        5.9846669024
  N         5.9526856214       14.6150537756       16.7977149139
  N        16.7640470706       18.9833349593        5.9800461163
  N        16.7636692455        8.1635863063       16.7945149666
  N         5.9536172338       18.9874525852       16.7983312503
  N         5.9460491251        8.1679394284        5.9863282539
  N        16.7642567723        3.7934164640       16.7937719319
  N        16.7635217737       14.6110061157        5.9820565792
  N         3.7664701147       16.7999131130       16.7999118063
  N        14.5809418568       16.7944140404        5.9809560508
  N        18.9524133600       16.7951979551        5.9805326421
  N         8.1351242310       16.7973783607       16.7973766896
  N        18.9524042509        5.9805350523       16.7951995315
  N         8.1282446085        5.9846990041        5.9846964159
  N         3.7596255201        5.9852937624        5.9852926696
  N        14.5809457212        5.9809580044       16.7944129226
  N        16.7640433182        5.9800447642       18.9833323314
  N        16.7636707313       16.7945146173        8.1635896704
  N        16.7642597713       16.7937704533        3.7934134102
  N        16.7635213477        5.9820562668       14.6110095904
  N         5.9459431665        5.9846719136        3.7974801181
  N         5.9526894938       16.7977189528       14.6150478570
  N         5.9536181354       16.7983317834       18.9874542567
  N         5.9460443975        5.9863402263        8.1679343805
  C        11.3588839292       15.7377165464       15.7377165017
  H        11.3582764614       14.9621275429       14.9621278525
  C        11.3513945338        4.9248051615        4.9248087433
  H        11.3503562715        4.1492740626        4.1492777648
  C         0.5391392213       15.7355384250        4.9277304166
  H         0.5407059795       14.9594268846        4.1527721747
  C         0.5391395137        4.9277304416       15.7355405676
  H         0.5407019039        4.1527726108       14.9594294341
  C        11.3564459657        7.0400472130       15.7363362012
  H        11.3565943148        7.8153996970       14.9605118630
  C        11.3561897092       17.8538937591        4.9241613980
  H        11.3559085187       18.6296450333        4.1488633890
  C         0.5343692693        7.0445635085        4.9282602465
  H         0.5345454855        7.8206181523        4.1532387352
  C         0.5410401934       17.8522397510       15.7361099362
  H         0.5412508721       18.6274199603       14.9602137092
  C        11.3564465646       15.7363364873        7.0400476000
  H        11.3565939927       14.9605115842        7.8154004561
  C        11.3561857974        4.9241616473       17.8538921750
  H        11.3559077702        4.1488641715       18.6296430500
  C         0.5410412198       15.7361107113       17.8522386710
  H         0.5412513131       14.9602141049       18.6274188624
  C         0.5343716066        4.9282607873        7.0445622699
  H         0.5345467235        4.1532395100        7.8206165486
  C        11.3534661541        7.0416669192        7.0416696072
  H        11.3543069830        7.8172558739        7.8172585698
  C        11.3605505608       17.8543385375       17.8543380605
  H        11.3611762086       18.6298560480       18.6298553919
  C         0.5365786838        7.0434900774       17.8521757844
  H         0.5353829055        7.8193817711       18.6273648774
  C         0.5365800927       17.8521748623        7.0434907232
  H         0.5353865934       18.6273645617        7.8193828483
  C        15.7066124142       11.3876168750       15.7348715313
  H        14.9312347406       11.3879207024       14.9590224510
  C        15.6991723162        0.5677555719        4.9253021119
  H        14.9232606953        0.5670470732        4.1500683541
  C         4.8868898329       11.3916150323        4.9288445856
  H         4.1121243328       11.3918604374        4.1525237105
  C         4.8978583393        0.5718724411       15.7360215948
  H         4.1228646025        0.5713945983       14.9598885028
  C        15.7021406750       11.3876560864        7.0395174823
  H        14.9268518384       11.3880024580        7.8154541906
  C        15.7044028849        0.5677892821       17.8489127591
  H        14.9288696386        0.5672775767       18.6245170623
  C         4.8933001497       11.3915468392       17.8564579527
  H         4.1183741479       11.3917665113       18.6326145910
  C         4.8921370975        0.5719933384        7.0463742095
  H         4.1172933392        0.5714752471        7.8226605003
  C         7.0083384886       11.3908889053       15.7366196550
  H         7.7832506123       11.3905072385       14.9603026133
  C         7.0071895264        0.5730908954        4.9277591460
  H         7.7825392999        0.5738559100        4.1519889472
  C        17.8187784599       11.3868990894        4.9214590456
  H        18.5942439075       11.3865376495        4.1458478682
  C        17.8194597540        0.5689330845       15.7305847293
  H        18.5942623645        0.5697702260       14.9542808728
  C         7.0021675442       11.3909263074        7.0486457729
  H         7.7775355202       11.3905190747        7.8244976016
  C         7.0124383205        0.5729411032       17.8549458406
  H         7.7877358893        0.5736879593       18.6307689671
  C        17.8232465034       11.3869484797       17.8529524362
  H        18.5989088723       11.3866056171       18.6283682755
  C        17.8156689625        0.5692784951        7.0421709286
  H        18.5910966123        0.5702520071        7.8178434049
  C        15.7066130673       15.7348718141       11.3876139042
  H        14.9312347878       14.9590220986       11.3879193562
  C        15.6991722658        4.9253010264        0.5677583591
  H        14.9232615992        4.1500682297        0.5670485802
  C         4.8978578719       15.7360228349        0.5718732871
  H         4.1228641403       14.9598897917        0.5713974648
  C         4.8869017724        4.9288343921       11.3916126111
  H         4.1121362032        4.1525135601       11.3918546363
  C         7.0083346444       15.7366140367       11.3908864765
  H         7.7832463773       14.9602970526       11.3905029074
  C         7.0071872005        4.9277596130        0.5730899971
  H         7.7825377354        4.1519892622        0.5738573729
  C        17.8194605812       15.7305845329        0.5689335038
  H        18.5942637664       14.9542801167        0.5697699116
  C        17.8187768062        4.9214583950       11.3868980713
  H        18.5942413316        4.1458482830       11.3865373703
  C        15.7021389231        7.0395170524       11.3876539099
  H        14.9268505031        7.8154532276       11.3880013627
  C        15.7044037850       17.8489123663        0.5677910341
  H        14.9288696413       18.6245175999        0.5672786199
  C         4.8921362744        7.0463736405        0.5719959571
  H         4.1172926237        7.8226602479        0.5714779743
  C         4.8932953025       17.8564539657       11.3915423724
  H         4.1183695621       18.6326105734       11.3917603810
  C         7.0021780383        7.0486350498       11.3909235507
  H         7.7775458790        7.8244871348       11.3905157228
  C         7.0124390069       17.8549483147        0.5729418220
  H         7.7877361825       18.6307713276        0.5736891223
  C        17.8156691771        7.0421703600        0.5692804742
  H        18.5910967680        7.8178426240        0.5702534823
  C        17.8232469003       17.8529523827       11.3869466715
  H        18.5989097539       18.6283686860       11.3866041074
 Kr         2.9150187921       10.7078446515       10.7078442216
