     409
 i =      96, E =    -5186.5828249447
  N         3.0320990556        5.2058226505       16.0180468939
  C         1.7140041103        5.4772555409       16.2861520419
  N        13.8495649526        5.2035658145        5.2035668929
  C        12.5319843740        5.4738914238        5.4738954441
  N        19.7155481403       17.5727398349       16.0163689927
  C        21.0336333806       17.3014056424       16.2852749745
  N         8.8954240145       17.5748512427        5.2053951162
  C        10.2132232419       17.3040004760        5.4743080452
  N        19.7118857418        5.2042140550        6.7606033991
  C        21.0299263672        5.4767326543        6.4928681822
  N         8.8954222252        5.2053947066       17.5748509179
  C        10.2132113559        5.4743069625       17.3039997978
  N         3.0311816319       17.5746757040        6.7619819815
  C         1.7134072730       17.3024086805        6.4931414690
  N        13.8535356668       17.5733388195       17.5733377129
  C        12.5358424808       17.3034775127       17.3034779944
  N        15.9998961535        3.0468623696        5.2033879086
  C        16.2685263730        1.7291160970        5.4747326003
  N        16.0042518555       13.8651736535       16.0159073954
  C        16.2741264028       12.5479116664       16.2855392273
  N        16.0038422427       19.7302461560       17.5729973587
  C        16.2715117125       21.0481001265       17.3010205075
  N        16.0013630100        8.9113119510        6.7603023849
  C        16.2713383736       10.2284606040        6.4903648718
  N         6.7443551697       19.7326002988        5.2063609304
  C         6.4756452660       21.0504670950        5.4777208752
  N         6.7454862308        8.9124728611       16.0180822342
  C         6.4758728494       10.2298817748       16.2880186081
  N         6.7445946165        3.0498229407       17.5748754442
  C         6.4775282137        1.7318187194       17.3027063634
  N         6.7442996069       13.8671775112        6.7622275299
  C         6.4742801771       12.5498638903        6.4924180576
  N         5.1898587034       16.0180107198        3.0491649457
  C         5.4621099211       16.2861818142        1.7313978932
  N         5.1886829974        5.2064323586       13.8675001061
  C         5.4583345379        5.4764245420       12.5500100021
  N        17.5580729984       16.0158026033       19.7304217098
  C        17.2866698479       16.2841988558       21.0482738313
  N        17.5555299243        5.2034954761        8.9106760660
  C        17.2865635380        5.4737250003       10.2281590942
  N         5.1889302538        6.7626131013       19.7324429518
  C         5.4598943289        6.4939935341       21.0502649217
  N         5.1899156361       17.5743990486        8.9127506749
  C         5.4601587153       17.3042942302       10.2300783802
  N        17.5545397395        6.7598888140        3.0471365308
  C        17.2839787463        6.4911612338        1.7293085689
  N        17.5588732007       17.5724534789       13.8653598475
  C        17.2895388176       17.3020473043       12.5478911605
  N         5.1870975992        3.0490720776        6.7624883910
  C         5.4588680910        1.7313208576        6.4940036857
  N         5.1909396246       13.8675057836       17.5744356943
  C         5.4606206766       12.5500377466       17.3043145476
  N        17.5559489302       19.7306308133        6.7597028921
  C        17.2847385102       21.0484230506        6.4910711497
  N        17.5572526045        8.9105589161       17.5729330847
  C        17.2887305506       10.2281001437       17.3022305418
  N         5.1916131759       19.7323127860       16.0178860052
  C         5.4630849236       21.0501489609       16.2861825755
  N         5.1876855720        8.9128363970        5.2065259709
  C         5.4578706296       10.2301738352        5.4764943317
  N        17.5565232281        3.0473245699       16.0156424966
  C        17.2858537026        1.7293695506       16.2841109769
  N        17.5571418611       13.8652826131        5.2040067797
  C        17.2873772648       12.5478424306        5.4739249038
  N         3.0335426885       16.0184865731       17.5749086810
  C         1.7156129842       16.2863638310       17.3024324993
  N        13.8512749732       16.0167633182        6.7594659976
  C        12.5338739774       16.2869111053        6.4894163383
  N        19.7141249610       16.0161922852        5.2043620399
  C        21.0320513085       16.2851396579        5.4764564685
  N         8.8973294816       16.0184477342       16.0184468692
  C        10.2149224115       16.2881293566       16.2881294747
  N        19.7132513132        6.7601552649       17.5731740209
  C        21.0314691447        6.4922618037       17.3016064187
  N         8.8946483178        6.7606578949        6.7606585388
  C        10.2119639850        6.4903393236        6.4903424156
  N         3.0297601132        6.7628770320        5.2065256179
  C         1.7118269415        6.4939362143        5.4778645065
  N        13.8512747275        6.7594658510       16.0167636337
  C        12.5338646086        6.4894161525       16.2869101950
  N        16.0015309876        5.2028852072       19.7303266349
  C        16.2693578135        5.4744999288       21.0481754450
  N        16.0030778469       16.0160121291        8.9112332906
  C        16.2735132779       16.2855684615       10.2283863037
  N        16.0021488832       17.5725816092        3.0467928668
  C        16.2706593395       17.3008209035        1.7291205795
  N        16.0025261543        6.7604273453       13.8650973643
  C        16.2719515343        6.4904013923       12.5478601955
  N         6.7419169881        5.2060234354        3.0496294296
  C         6.4743914713        5.4776353185        1.7317053306
  N         6.7461618243       16.0180748398       13.8673223565
  C         6.4762434439       16.2879797154       12.5499140578
  N         6.7469479712       17.5745530477       19.7323929869
  C         6.4787251241       17.3026133895       21.0503394976
  N         6.7436092870        6.7622981748        8.9127045095
  C         6.4738955306        6.4924400275       10.2300446359
  N        19.7132496580       17.5731749729        6.7601579376
  C        21.0314565486       17.3016018416        6.4922640969
  N         8.8975128837       17.5743483201       17.5743470581
  C        10.2151810762       17.3041124814       17.3041121619
  N         3.0297599169        5.2065253780        6.7628764996
  C         1.7118274583        5.4778642932        6.4939361043
  N        13.8515633606        5.2033642173       17.5731811220
  C        12.5339522011        5.4735368908       17.3031327979
  N         3.0335420330       17.5749097215       16.0184855581
  C         1.7156139768       17.3024333411       16.2863632315
  N        13.8515635287       17.5731831487        5.2033623133
  C        12.5339625888       17.3031342314        5.4735368097
  N        19.7141281104        5.2043627244       16.0161949833
  C        21.0320613892        5.4764543476       16.2851446156
  N         8.8932681699        5.2047705785        5.2047717173
  C        10.2111712342        5.4743543338        5.4743576119
  N         6.7469476609       19.7323952044       17.5745514516
  C         6.4787252415       21.0503449957       17.3026135892
  N         6.7436100804        8.9127035533        6.7622989135
  C         6.4738953357       10.2300411688        6.4924392126
  N         6.7419164547        3.0496318582        5.2060241075
  C         6.4743920708        1.7317090090        5.4776356941
  N         6.7461624404       13.8673204194       16.0180738263
  C         6.4762427884       12.5499111651       16.2879787518
  N        16.0021506813        3.0467971070       17.5725774640
  C        16.2706569974        1.7291159684       17.3008170735
  N        16.0025245516       13.8650970923        6.7604286686
  C        16.2719626139       12.5478694381        6.4904133493
  N        16.0015274722       19.7303296995        5.2028807683
  C        16.2693566851       21.0481699114        5.4744981852
  N        16.0030809718        8.9112337479       16.0160128392
  C        16.2735055508       10.2283961174       16.2855781347
  N        17.5559491588        6.7597043830       19.7306304092
  C        17.2847387016        6.4910719834       21.0484290842
  N        17.5572510611       17.5729342689        8.9105566651
  C        17.2887390130       17.3022218425       10.2280894260
  N         5.1870977777        6.7624884079        3.0490710373
  C         5.4588667952        6.4940040694        1.7313169802
  N         5.1909395935       17.5744362675       13.8675063140
  C         5.4606221598       17.3043149833       12.5500416882
  N        17.5565249188       16.0156435666        3.0473226881
  C        17.2858570819       16.2841138225        1.7293732912
  N        17.5571416284        5.2040077435       13.8652809447
  C        17.2873653948        5.4739140101       12.5478333284
  N         5.1916136003       16.0178878394       19.7323093864
  C         5.4630855840       16.2861830709       21.0501456023
  N         5.1876851357        5.2065247509        8.9128387397
  C         5.4578703084        5.4764942682       10.2301769011
  N        17.5580701635       19.7304200686       16.0158023363
  C        17.2866677749       21.0482690562       16.2841981579
  N        17.5555328372        8.9106802003        5.2034950323
  C        17.2865735338       10.2281666419        5.4737325426
  N         5.1898567119        3.0491663962       16.0180101310
  C         5.4621084436        1.7314060357       16.2861819628
  N         5.1886835295       13.8674999640        5.2064320631
  C         5.4583351979       12.5500035899        5.4764242413
  N        17.5545408525        3.0471335886        6.7598901717
  C        17.2839766880        1.7293031682        6.4911636664
  N        17.5588719135       13.8653644128       17.5724523706
  C        17.2895320542       12.5478984822       17.3020528238
  N         5.1889325795       19.7324409254        6.7626106394
  C         5.4598963202       21.0502720931        6.4939925913
  N         5.1899137210        8.9127532387       17.5744000853
  C         5.4601568984       10.2300718319       17.3042940171
  N        19.7118854512        6.7606043989        5.2042132293
  C        21.0299277323        6.4928691927        5.4767319807
  N         8.8960564380        6.7604492436       16.0181470406
  C        10.2134907460        6.4898570204       16.2875878820
  N         3.0311828203        6.7619843373       17.5746770896
  C         1.7134219007        6.4931407966       17.3024122655
  N        13.8497697476        6.7598277086        6.7598286300
  C        12.5322953553        6.4899494044        6.4899532256
  N         3.0320945455       16.0180461399        5.2058208804
  C         1.7139898523       16.2861487117        5.4772565577
  N        13.8526649259       16.0170830202       16.0170825640
  C        12.5353603168       16.2874323899       16.2874332513
  N        19.7155486991       16.0163697459       17.5727382348
  C        21.0336328589       16.2852758309       17.3014044653
  N         8.8960583312       16.0181482644        6.7604484229
  C        10.2135049042       16.2875886540        6.4898577294
  N         6.7445944715       17.5748739130        3.0498235575
  C         6.4775287789       17.3027052634        1.7318109640
  N         6.7443009490        6.7622297693       13.8671752053
  C         6.4742802520        6.4924193053       12.5498708632
  N         6.7443540773        5.2063621448       19.7326004278
  C         6.4756441231        5.4777207847       21.0504602341
  N         6.7454865909       16.0180824018        8.9124720833
  C         6.4758736698       16.2880196429       10.2298881787
  N        16.0038441977       17.5729984435       19.7302463218
  C        16.2715129071       17.3010218993       21.0481043365
  N        16.0013608112        6.7603022606        8.9113078827
  C        16.2713292926        6.4903566040       10.2284533028
  N        15.9998956289        5.2033875181        3.0468631551
  C        16.2685290828        5.4747308569        1.7291212524
  N        16.0042531149       16.0159079753       13.8651694988
  C        16.2741324826       16.2855328740       12.5479044598
 Zn        14.7122217065       14.7226302326       14.7226311606
 Cl        13.4784973353       13.4910507568       13.4910502150
 Zn        14.7112392124        3.9085835163        3.9085803932
 Cl        13.4720759428        2.6796589645        2.6796602229
 Zn         3.8968773049       14.7259054543        3.9109539692
 Cl         2.6651282962       13.4897548934        2.6819255497
 Zn         3.8968818469        3.9109650910       14.7259134772
 Cl         2.6651348364        2.6819337736       13.4897628630
 Zn         8.0394735837        8.0545377637       14.7239756658
 Cl         9.2707728833        9.2869704652       13.4910478260
 Zn         8.0342101579       18.8700780983        3.9117781639
 Cl         9.2724861673       20.0984308054        2.6813321058
 Zn        18.8452326611        8.0517886925        3.9084304908
 Cl        20.0773042365        9.2874695975        2.6788691617
 Zn        18.8494378328       18.8678027978       14.7243197929
 Cl        20.0814441362       20.0954398334       13.4867732738
 Zn         8.0394832532       14.7239672772        8.0545460663
 Cl         9.2707821253       13.4910396432        9.2869785707
 Zn         8.0341992717        3.9117894080       18.8700692771
 Cl         9.2724751601        2.6813418254       20.0984218446
 Zn        18.8494390475       14.7243184459       18.8677981855
 Cl        20.0814435073       13.4867743009       20.0954386124
 Zn        18.8452318450        3.9084353274        8.0517896914
 Cl        20.0773016662        2.6788704885        9.2874691505
 Zn        14.7101593612        8.0539890902        8.0539900188
 Cl        13.4768221635        9.2858089789        9.2858084276
 Zn        14.7147968524       18.8681713171       18.8681679688
 Cl        13.4764032967       20.0974179906       20.0974186779
 Zn         3.8964501869        8.0539076603       18.8691848145
 Cl         2.6655145884        9.2913887733       20.0976929931
 Zn         3.8964444294       18.8691948593        8.0539155207
 Cl         2.6655062453       20.0977014669        9.2913964497
 Zn        14.7112095504       14.7225856890        8.0539364574
 Cl        13.4776408646       13.4909004823        9.2856071009
 Zn        14.7130418058        3.9081004983       18.8677499873
 Cl        13.4742408838        2.6782900258       20.0960911630
 Zn         3.8982476180       14.7260902541       18.8695728577
 Cl         2.6669377549       13.4893421289       20.0983630373
 Zn         3.8951047083        3.9115292034        8.0541375519
 Cl         2.6636980868        2.6827275518        9.2909566969
 Zn         8.0384307565        8.0547442922        8.0547422544
 Cl         9.2700592197        9.2872748714        9.2872751825
 Zn         8.0378271472       18.8691967135       18.8691979308
 Cl         9.2767314287       20.0981521196       20.0981510685
 Zn        18.8465762653        8.0515867159       18.8687272412
 Cl        20.0796580209        9.2878904289       20.0966331634
 Zn        18.8465633068       18.8687162822        8.0515759852
 Cl        20.0796476267       20.0966203428        9.2878782617
 Zn        14.7112028867        8.0539472672       14.7225751004
 Cl        13.4776289418        9.2856168601       13.4908909900
 Zn        14.7130480046       18.8677398628        3.9081094303
 Cl        13.4742511559       20.0960819219        2.6782983377
 Zn         3.8951038260        8.0541394997        3.9115316333
 Cl         2.6636975476        9.2909561582        2.6827278322
 Zn         3.8982484486       18.8695707381       14.7260881875
 Cl         2.6669383665       20.0983630105       13.4893410471
 Zn         8.0404924485       14.7241716952       14.7241699196
 Cl         9.2714842162       13.4913487240       13.4913491912
 Zn         8.0303741587        3.9106393954        3.9106411508
 Cl         9.2682311416        2.6809209813        2.6809208767
 Zn        18.8479013666       14.7241304513        3.9093447295
 Cl        20.0789559539       13.4872403364        2.6800515799
 Zn        18.8479141348        3.9093360316       14.7241224478
 Cl        20.0789661785        2.6800400075       13.4872303148
 Zn         5.9610257304        5.9862566121       16.7981703526
 Zn        16.7793899279       16.7945504066       16.7945463160
 Zn        16.7766218528        5.9823227245        5.9823182109
 Zn         5.9610252621       16.7981709043        5.9862548853
 Zn         5.9594981171        5.9863479656        5.9863479029
 Zn        16.7779685112       16.7945607207        5.9822332895
 Zn         5.9626949803       16.7983155804       16.7983138978
 Zn        16.7779712564        5.9822391956       16.7945576742
  N         3.7779374324        5.9831737382       16.7974842436
  N        14.5959071198        5.9815787570        5.9815785569
  N        18.9691144615       16.7952784301       16.7952770112
  N         8.1491099653       16.7968533044        5.9834548948
  N        18.9655036502        5.9810627755        5.9810619221
  N         8.1491071394        5.9834552738       16.7968531341
  N         3.7779337669       16.7974848430        5.9831706939
  N        14.5993622101       16.7950587802       16.7950576194
  N        16.7778208728        3.7937419933        5.9809121124
  N        16.7813531453       14.6117911676       16.7943749224
  N        16.7819785198       18.9835989528       16.7954343292
  N        16.7781691063        8.1644681620        5.9818730088
  N         5.9659116285       18.9858774597        5.9836699636
  N         5.9674592185        8.1662659620       16.7962522597
  N         5.9656843182        3.7962405145       16.7976319118
  N         5.9665455273       14.6139110788        5.9843658200
  N         5.9656858052       16.7976317703        3.7962372464
  N         5.9665453795        5.9843664651       14.6139128257
  N        16.7819784724       16.7954355968       18.9835984290
  N        16.7781726250        5.9818779171        8.1644643588
  N         5.9659104268        5.9836717286       18.9858765532
  N         5.9674593362       16.7962521263        8.1662664217
  N        16.7778214813        5.9809129711        3.7937425156
  N        16.7813495119       16.7943792622       14.6117863641
  N         5.9632944030        3.7961342885        5.9833281144
  N         5.9685626419       14.6139689814       16.7962942217
  N        16.7796858728       18.9837217585        5.9804496455
  N        16.7796224496        8.1643726104       16.7947589529
  N         5.9682316344       18.9857516338       16.7973306789
  N         5.9654509641        8.1663966771        5.9844767874
  N        16.7800243419        3.7937763891       16.7950108822
  N        16.7798755627       14.6117336510        5.9822871300
  N         3.7798387585       16.7979903253       16.7979889575
  N        14.5976657124       16.7949595380        5.9814151534
  N        18.9672718518       16.7955132588        5.9811266138
  N         8.1507771223       16.7964833270       16.7964818121
  N        18.9672804547        5.9811281720       16.7955147689
  N         8.1473533131        5.9829915522        5.9829912029
  N         3.7760621245        5.9840473128        5.9840496987
  N        14.5976611268        5.9814179374       16.7949574373
  N        16.7796865541        5.9804515571       18.9837251060
  N        16.7796148282       16.7947642681        8.1643675944
  N        16.7800226826       16.7950125620        3.7937787424
  N        16.7798835671        5.9822922823       14.6117285569
  N         5.9632938307        5.9833289827        3.7961327482
  N         5.9685625825       16.7962941223       14.6139697395
  N         5.9682312862       16.7973322489       18.9857483455
  N         5.9654521794        5.9844771905        8.1663988926
  C        11.3748039717       15.7372644635       15.7372653038
  H        11.3744114410       14.9616656439       14.9616663597
  C        11.3713217385        4.9237540718        4.9237583457
  H        11.3710499515        4.1482306983        4.1482345496
  C         0.5534374354       15.7347673580        4.9275475090
  H         0.5544538300       14.9586357115        4.1525947596
  C         0.5534560217        4.9275438596       15.7347704354
  H         0.5544622249        4.1525912960       14.9586378846
  C        11.3736022709        7.0398920749       15.7364695328
  H        11.3735871996        7.8152939515       14.9606777062
  C        11.3735784976       17.8539720856        4.9235741141
  H        11.3736463300       18.6296289392        4.1481752495
  C         0.5509018724        7.0441982787        4.9278826579
  H         0.5512004419        7.8201813428        4.1527879820
  C         0.5546393738       17.8513442621       15.7350780331
  H         0.5549471868       18.6264718418       14.9591256618
  C        11.3736207650       15.7364714733        7.0398915846
  H        11.3735955736       14.9606797403        7.8152931940
  C        11.3735611366        4.9235735448       17.8539706920
  H        11.3736399590        4.1481746305       18.6296275929
  C         0.5546387072       15.7350787085       17.8513429724
  H         0.5549468027       14.9591264377       18.6264701921
  C         0.5509010773        4.9278827484        7.0441976608
  H         0.5511991233        4.1527878821        7.8201807354
  C        11.3722922116        7.0406608910        7.0406648553
  H        11.3725908638        7.8162577878        7.8162612339
  C        11.3757704841       17.8541749479       17.8541749271
  H        11.3762506254       18.6297079113       18.6297072537
  C         0.5520699473        7.0433253818       17.8515641570
  H         0.5516542249        7.8191776415       18.6267871214
  C         0.5520499954       17.8515597382        7.0433274169
  H         0.5516453065       18.6267836872        7.8191795080
  C        15.7233765753       11.3882832974       15.7344778961
  H        14.9478443586       11.3884227154       14.9588106046
  C        15.7181293880        0.5685180150        4.9246726428
  H        14.9422075991        0.5684350961        4.1494854893
  C         4.9073782426       11.3901827023        4.9260104924
  H         4.1315624629       11.3902371908        4.1507430594
  C         4.9131514358        0.5705849528       15.7351286073
  H         4.1378978948        0.5703440057       14.9592866039
  C        15.7210376036       11.3882916367        7.0413511212
  H        14.9454942582       11.3884330865        7.8170042938
  C        15.7203751738        0.5684702959       17.8508891374
  H        14.9446124060        0.5683610793       18.6262360284
  C         4.9099093917       11.3901576107       17.8548873879
  H         4.1343272862       11.3902295876       18.6303721000
  C         4.9097100108        0.5705896827        7.0449337984
  H         4.1344684802        0.5703243126        7.8207730141
  C         7.0264513731       11.3897978583       15.7370620414
  H         7.8016011226       11.3895691089       14.9610015101
  C         7.0257222387        0.5713747118        4.9276942495
  H         7.8012923704        0.5719866479        4.1521245403
  C        17.8373731322       11.3878608853        4.9228536869
  H        18.6124980966       11.3875922103        4.1468782010
  C        17.8356067013        0.5690001091       15.7327784831
  H        18.6102802423        0.5694875914       14.9563243021
  C         7.0247055346       11.3898634601        7.0432207253
  H         7.8001414859       11.3896468563        7.8189872570
  C         7.0288375434        0.5713564497       17.8524854661
  H         7.8043888690        0.5719388938       18.6280593312
  C        17.8396572936       11.3878520194       17.8529179242
  H        18.6149090356       11.3875729546       18.6287627106
  C        17.8340143103        0.5690281564        7.0422655308
  H        18.6090224910        0.5694886883        7.8183897795
  C        15.7233872016       15.7344700785       11.3882709881
  H        14.9478527642       14.9588048599       11.3884169098
  C        15.7181294002        4.9246705182        0.5685270367
  H        14.9422076048        4.1494836458        0.5684378472
  C         4.9131517643       15.7351279887        0.5705767291
  H         4.1378986380       14.9592868195        0.5703397537
  C         4.9073787407        4.9260116278       11.3901898981
  H         4.1315625269        4.1507435344       11.3902403717
  C         7.0264533008       15.7370620051       11.3898052165
  H         7.8016025177       14.9610017058       11.3895718889
  C         7.0257201518        4.9276951301        0.5713665415
  H         7.8012908357        4.1521252447        0.5719828954
  C        17.8356080960       15.7327826883        0.5690084086
  H        18.6102819815       14.9563284640        0.5694908326
  C        17.8373609786        4.9228411427       11.3878483067
  H        18.6124879418        4.1468681435       11.3875849790
  C        15.7210231150        7.0413407409       11.3882796037
  H        14.9454821022        7.8169959151       11.3884276000
  C        15.7203793481       17.8508902519        0.5684784864
  H        14.9446164067       18.6262373280        0.5683631256
  C         4.9097099377        7.0449328720        0.5705817092
  H         4.1344685957        7.8207723153        0.5703218165
  C         4.9099095865       17.8548895961       11.3901653975
  H         4.1343274889       18.6303742664       11.3902321728
  C         7.0247041458        7.0432204127       11.3898711797
  H         7.8001404157        7.8189871969       11.3896498662
  C         7.0288396730       17.8524867814        0.5713473248
  H         7.8043905831       18.6280606830        0.5719346209
  C        17.8340174415        7.0422664374        0.5690379838
  H        18.6090251452        7.8183903799        0.5694936007
  C        17.8396656360       17.8529082680       11.3878388690
  H        18.6149157066       18.6287556360       11.3875653107
 Kr         1.3423718918       10.7509349949       10.7509347412
