     409
 i =      96, E =    -5186.5805548165
  N         2.8986022503        5.2027488272       16.0009866135
  C         1.5807185442        5.4730120404       16.2712023170
  N        13.7053684528        5.1454763389        5.1454761981
  C        12.3880374996        5.4178971740        5.4178970528
  N        19.5858617982       17.5634312128       16.0077647752
  C        20.9039058520       17.2927176986       16.2766866112
  N         8.7503169574       17.5901315764        5.1773605145
  C        10.0710887012       17.3262308264        5.4360470495
  N        19.5758069541        5.2039375421        6.7600836688
  C        20.8937547383        5.4751293019        6.4912189530
  N         8.7503156653        5.1773607974       17.5901321305
  C        10.0710881279        5.4360475388       17.3262312008
  N         2.8990637729       17.5550489147        6.7603401148
  C         1.5811222966       17.2866375779        6.4896231909
  N        13.7138588623       17.6101989789       17.6101986571
  C        12.3970440271       17.3369127844       17.3369121995
  N        15.8885274429        3.0363146373        5.1878249573
  C        16.1545891676        1.7205492308        5.4653844844
  N        15.8548442097       13.8607229968       16.0072136012
  C        16.1285323407       12.5422415207       16.2718853799
  N        15.8911522979       19.7265536496       17.5722934672
  C        16.1559018448       21.0426959669       17.2938916889
  N        15.8419675853        8.8998500474        6.7547392472
  C        16.1157126443       10.2187381915        6.4930879621
  N         6.5872591566       19.7257599363        5.1960900701
  C         6.3179836857       21.0418777705        5.4707671862
  N         6.6318100197        8.9019648767       16.0125892766
  C         6.3619749021       10.2207522644       16.2799539475
  N         6.5934451035        3.0392221469       17.5747174893
  C         6.3269876492        1.7223633014       17.3001828056
  N         6.6267004299       13.8589541447        6.7470850528
  C         6.3547461606       12.5405802778        6.4812797361
  N         5.0500165405       16.0072186670        3.0404582779
  C         5.3187160223       16.2766831291        1.7223801730
  N         5.0622904020        5.2000461706       13.8574999436
  C         5.3330649461        5.4709968319       12.5406164585
  N        17.4318991341       16.0013247740       19.7230562427
  C        17.1621881269       16.2682016719       21.0415872589
  N        17.4079582938        5.2089851696        8.9039614960
  C        17.1382831666        5.4837623919       10.2208879563
  N         5.0437335465        6.7634806935       19.7205472336
  C         5.3097740750        6.4944820732       21.0396227090
  N         5.0646847426       17.5567637930        8.9054729432
  C         5.3389384170       17.2889305601       10.2221262109
  N        17.4276449539        6.7603504634        3.0406826112
  C        17.1598847912        6.4919144616        1.7221947162
  N        17.4212366587       17.5522666108       13.8597707802
  C        17.1515440331       17.2809591044       12.5423684188
  N         5.0370250555        3.0394355500        6.7618628509
  C         5.3068293950        1.7211189320        6.4935841993
  N         5.0677212816       13.8584995063       17.5600144691
  C         5.3398748418       12.5416067254       17.2906437378
  N        17.4307320529       19.7235426408        6.7587826239
  C        17.1611501237       21.0417870256        6.4910172097
  N        17.4210032431        8.9048852108       17.5597906263
  C        17.1515594737       10.2216127868       17.2848590168
  N         5.0539720459       19.7226704628       16.0062961119
  C         5.3203767331       21.0413404701       16.2760408193
  N         5.0579263422        8.9047014163        5.2006029064
  C         5.3315322953       10.2210406266        5.4713244520
  N        17.4294213371        3.0410904811       15.9993984752
  C        17.1610857385        1.7224519164       16.2671118597
  N        17.4101865464       13.8596510831        5.2161577991
  C        17.1393340215       12.5421672153        5.4873848421
  N         2.9034692034       16.0042930399       17.5600756876
  C         1.5854852213       16.2748739781       17.2909384236
  N        13.7191236369       16.0544533573        6.7004192062
  C        12.3999091351       16.3193135595        6.4348555759
  N        19.5808281331       16.0052421944        5.2023192321
  C        20.8990789672       16.2735428643        5.4725956687
  N         8.7716402354       16.0295510979       16.0295505987
  C        10.0854599419       16.3084184677       16.3084179262
  N        19.5819370383        6.7570356630       17.5624447093
  C        20.8996858349        6.4880494826       17.2902258089
  N         8.7621023923        6.7243399695        6.7243401114
  C        10.0757560152        6.4453594129        6.4453593544
  N         2.8929538191        6.7623180018        5.2063263637
  C         1.5751730027        6.4924570237        5.4764856086
  N        13.7191218437        6.7004188237       16.0544536922
  C        12.3999080996        6.4348556822       16.3193141663
  N        15.8905820897        5.1870233923       19.7265751479
  C        16.1554429408        5.4647776052       21.0426533229
  N        15.8553036231       16.0146631136        8.9000181414
  C        16.1287368653       16.2758021777       10.2191357777
  N        15.8892188904       17.5706879502        3.0370276503
  C        16.1550216756       17.2929293040        1.7210433571
  N        15.8444050545        6.7625756773       13.8608529997
  C        16.1168596685        6.4970379100       12.5424167771
  N         6.5796315113        5.1935711188        3.0373620125
  C         6.3145819391        5.4695749872        1.7208211800
  N         6.6332711340       16.0140175487       13.8604760858
  C         6.3622174095       16.2810136297       12.5421650126
  N         6.5977680468       17.5732748408       19.7262031203
  C         6.3288962015       17.2994094006       21.0427960876
  N         6.6245388881        6.7453352917        8.8998569457
  C         6.3541384833        6.4807679847       10.2190335688
  N        19.5819371366       17.5624441148        6.7570359810
  C        20.8996864450       17.2902249446        6.4880485978
  N         8.7547591905       17.5856482468       17.5856480925
  C        10.0753792062       17.3239805411       17.3239803833
  N         2.8929544853        5.2063254538        6.7623192066
  C         1.5751730100        5.4764851591        6.4924578390
  N        13.7099073833        5.1503319175       17.6126538100
  C        12.3929588725        5.4218733260       17.3379922842
  N         2.9034702041       17.5600774720       16.0042920947
  C         1.5854857235       17.2909400386       16.2748731006
  N        13.7099086527       17.6126535148        5.1503317486
  C        12.3929598884       17.3379921940        5.4218725964
  N        19.5808251258        5.2023191430       16.0052421294
  C        20.8990772234        5.4725960593       16.2735426053
  N         8.7446197534        5.1688536393        5.1688544561
  C        10.0656701179        5.4298868577        5.4298874432
  N         6.5977682296       19.7262024859       17.5732750184
  C         6.3288961327       21.0427957716       17.2994101621
  N         6.6245387163        8.8998575549        6.7453354703
  C         6.3541383310       10.2190340539        6.4807676793
  N         6.5796310278        3.0373601617        5.1935723294
  C         6.3145816752        1.7208202567        5.4695758895
  N         6.6332714853       13.8604780348       16.0140163974
  C         6.3622177634       12.5421664187       16.2810126686
  N        15.8892159816        3.0370299962       17.5706884040
  C        16.1550200112        1.7210445922       17.2929295083
  N        15.8444071017       13.8608515293        6.7625748136
  C        16.1168605954       12.5424158813        6.4970377241
  N        15.8905855163       19.7265786410        5.1870255809
  C        16.1554448422       21.0426537599        5.4647792988
  N        15.8553000969        8.9000148039       16.0146627479
  C        16.1287345480       10.2191346137       16.2758017711
  N        17.4307284222        6.7587811670       19.7235474274
  C        17.1611483374        6.4910162585       21.0417897445
  N        17.4210068458       17.5597907692        8.9048815825
  C        17.1515614183       17.2848588206       10.2216113013
  N         5.0370254338        6.7618616365        3.0394347000
  C         5.3068295769        6.4935832968        1.7211184383
  N         5.0677212632       17.5600160024       13.8585002751
  C         5.3398747852       17.2906448643       12.5416069708
  N        17.4294237168       15.9993975310        3.0410915139
  C        17.1610871851       16.2671112292        1.7224518756
  N        17.4101846331        5.2161581261       13.8596504216
  C        17.1393326822        5.4873851294       12.5421673997
  N         5.0539718870       16.0062960010       19.7226685951
  C         5.3203768625       16.2760400998       21.0413391658
  N         5.0579264854        5.2006028369        8.9047032412
  C         5.3315325074        5.4713248941       10.2210419393
  N        17.4318996503       19.7230552729       16.0013233049
  C        17.1621883189       21.0415869396       16.2682002467
  N        17.4079589137        8.9039634372        5.2089865031
  C        17.1382841790       10.2208880027        5.4837640393
  N         5.0500135014        3.0404598782       16.0072189327
  C         5.3187138095        1.7223813221       16.2766831822
  N         5.0622927954       13.8574983457        5.2000462901
  C         5.3330665340       12.5406155423        5.4709971929
  N        17.4276443343        3.0406775066        6.7603495307
  C        17.1598832922        1.7221906199        6.4919129421
  N        17.4212375093       13.8597750895       17.5522668894
  C        17.1515446838       12.5423712610       17.2809606006
  N         5.0437355332       19.7205478983        6.7634795438
  C         5.3097754484       21.0396230657        6.4944812698
  N         5.0646827768        8.9054721365       17.5567645747
  C         5.3389370662       10.2221259248       17.2889312214
  N        19.5758066974        6.7600833867        5.2039382320
  C        20.8937541386        6.4912190697        5.4751296721
  N         8.7675762295        6.7272446552       16.0283843349
  C        10.0813319339        6.4478662472       16.3070450821
  N         2.8990641052        6.7603410632       17.5550496176
  C         1.5811227140        6.4896247152       17.2866388253
  N        13.7131740996        6.6999600410        6.6999597660
  C        12.3942609112        6.4337992051        6.4337991510
  N         2.8986051742       16.0009857132        5.2027469160
  C         1.5807203408       16.2712014292        5.4730103310
  N        13.7232023939       16.0561462435       16.0561461801
  C        12.4039982775       16.3211130668       16.3211128784
  N        19.5858608410       16.0077654450       17.5634301044
  C        20.9039052182       16.2766873927       17.2927168902
  N         8.7675780032       16.0283840560        6.7272436640
  C        10.0813330367       16.3070447556        6.4478654733
  N         6.5934477461       17.5747175673        3.0392226511
  C         6.3269894762       17.3001828061        1.7223631392
  N         6.6266982687        6.7470848688       13.8589533343
  C         6.3547448336        6.4812793923       12.5405800496
  N         6.5872568743        5.1960912421       19.7257613766
  C         6.3179821162        5.4707680335       21.0418785981
  N         6.6318120559       16.0125884363        8.9019632445
  C         6.3619761581       16.2799533328       10.2207511921
  N        15.8911521860       17.5722950380       19.7265509584
  C        16.1559018569       17.2938933427       21.0426940216
  N        15.8419679175        6.7547377388        8.8998508103
  C        16.1157123538        6.4930864057       10.2187394600
  N        15.8885291118        5.1878261723        3.0363115454
  C        16.1545909474        5.4653858953        1.7205477883
  N        15.8548431057       16.0072128921       13.8607261506
  C        16.1285317889       16.2718839524       12.5422431705
 Zn        14.5491606460       14.7580226759       14.7580185665
 Cl        13.1136382651       13.6408507583       13.6408516975
 Zn        14.6022459498        3.8706140964        3.8706209852
 Cl        13.4206756679        2.6139224348        2.6139221458
 Zn         3.7669755878       14.7136581092        3.9068561146
 Cl         2.5281228315       13.4767509280        2.6847805265
 Zn         3.7669760726        3.9068562462       14.7136578447
 Cl         2.5281207530        2.6847817923       13.4767517804
 Zn         7.9257068677        8.0271074196       14.7258778120
 Cl         9.1440262989        9.2664453549       13.4872869936
 Zn         7.8776422065       18.8787766038        3.8948634937
 Cl         9.0999539451       20.1185030579        2.6594225702
 Zn        18.7114148180        8.0540409988        3.9131533481
 Cl        19.9324831009        9.3048774360        2.6890339571
 Zn        18.7184969769       18.8473794160       14.7134055583
 Cl        19.9410782436       20.0739592915       13.4647214187
 Zn         7.9257062151       14.7258776560        8.0271069252
 Cl         9.1440270972       13.4872871501        9.2664446437
 Zn         7.8776422383        3.8948634952       18.8787771097
 Cl         9.0999522493        2.6594226060       20.1185042992
 Zn        18.7184966034       14.7134037337       18.8473733447
 Cl        19.9410778488       13.4647233502       20.0739584668
 Zn        18.7114147819        3.9131568752        8.0540453701
 Cl        19.9324826882        2.6890331246        9.3048776910
 Zn        14.5360559374        8.0022468144        8.0022475280
 Cl        13.0807685066        9.1064166117        9.1064150962
 Zn        14.6047715948       18.8864650099       18.8864671512
 Cl        13.4180026781       20.1407386440       20.1407378232
 Zn         3.7627816485        8.0561961408       18.8420610714
 Cl         2.5233599378        9.2933321446       20.0641424258
 Zn         3.7627819288       18.8420617668        8.0561964878
 Cl         2.5233604702       20.0641425820        9.2933313952
 Zn        14.5445856152       14.7663674265        8.0110566078
 Cl        13.1002313651       13.7118164418        9.1770494155
 Zn        14.6032374798        3.8739097525       18.8868764971
 Cl        13.4190637188        2.6155871534       20.1396597096
 Zn         3.7721748705       14.7138065685       18.8500922582
 Cl         2.5325989435       13.4781438818       20.0737183989
 Zn         3.7539364100        3.9114943323        8.0555044099
 Cl         2.5161200469        2.6925853088        9.2956044230
 Zn         7.9208823161        8.0235206787        8.0235228810
 Cl         9.1429119823        9.2615258806        9.2615256107
 Zn         7.8868891179       18.8743319306       18.8743302017
 Cl         9.1137899139       20.1094086583       20.1094080724
 Zn        18.7180764164        8.0515441640       18.8532563179
 Cl        19.9440787811        9.2911595409       20.0844182746
 Zn        18.7180734767       18.8532518335        8.0515414552
 Cl        19.9440776633       20.0844157801        9.2911564863
 Zn        14.5445867395        8.0110582923       14.7663695120
 Cl        13.1002314712        9.1770503232       13.7118176715
 Zn        14.6032350007       18.8868753402        3.8739068433
 Cl        13.4190635909       20.1396603610        2.6155857331
 Zn         3.7539364611        8.0555060277        3.9114961907
 Cl         2.5161196593        9.2956036761        2.6925853220
 Zn         3.7721750205       18.8500904546       14.7138052064
 Cl         2.5326000510       20.0737190145       13.4781433913
 Zn         7.9300295912       14.7270488140       14.7270502784
 Cl         9.1436818056       13.4864447000       13.4864441938
 Zn         7.8613893505        3.8880561690        3.8880546086
 Cl         9.0789122816        2.6474285064        2.6474294005
 Zn        18.7129418420       14.7109221560        3.9180027629
 Cl        19.9309129178       13.4513406653        2.6986766458
 Zn        18.7129444475        3.9180037027       14.7109233751
 Cl        19.9309132887        2.6986765366       13.4513414796
 Zn         5.8353134872        5.9711892367       16.7851018597
 Zn        16.6527290381       16.8021340649       16.8021321498
 Zn        16.6424010337        5.9580996020        5.9581017616
 Zn         5.8353142607       16.7851014391        5.9711882705
 Zn         5.8280557936        5.9684213460        5.9684217729
 Zn        16.6494303499       16.8058554427        5.9602417924
 Zn         5.8395533101       16.7859372803       16.7859367002
 Zn        16.6494288247        5.9602419670       16.8058581951
  N         3.6452600823        5.9817712793       16.7776334350
  N        14.4556490182        5.9222796842        5.9222799796
  N        18.8391636391       16.7858809317       16.7858790556
  N         8.0125605674       16.8057041949        5.9575144961
  N        18.8291244380        5.9814229046        5.9814239451
  N         8.0125586968        5.9575149261       16.8057048296
  N         3.6452621776       16.7776341653        5.9817714371
  N        14.4651274009       16.8340910044       16.8340907222
  N        16.6585040630        3.7845963318        5.9709311288
  N        16.6370914464       14.6071378741       16.7825659694
  N        16.6628858958       18.9787491284       16.7904076085
  N        16.6241621294        8.1549401576        5.9774742515
  N         5.8166110334       18.9763505152        5.9780113660
  N         5.8466724213        8.1572900151       16.7848068064
  N         5.8213385542        3.7865342604       16.7923644425
  N         5.8449651865       14.6045508963        5.9722347353
  N         5.8213398553       16.7923629382        3.7865335152
  N         5.8449645722        5.9722361061       14.6045512141
  N        16.6628872417       16.7904071282       18.9787486506
  N        16.6241623300        5.9774752442        8.1549409536
  N         5.8166104650        5.9780104876       18.9763509057
  N         5.8466726276       16.7848080221        8.1572893614
  N        16.6585017321        5.9709280846        3.7845972061
  N        16.6370932564       16.7825690722       14.6071378397
  N         5.8074361324        3.7850287937        5.9752762462
  N         5.8500073520       14.6057774939       16.7874884836
  N        16.6619050107       18.9791229818        5.9696298071
  N        16.6369841773        8.1555370680       16.7917003835
  N         5.8266996290       18.9775801966       16.7909623684
  N         5.8403945885        8.1558245121        5.9713908533
  N        16.6600253575        3.7851728286       16.7883438169
  N        16.6271984921       14.6072672221        5.9866782430
  N         3.6498368297       16.7817561582       16.7817560972
  N        14.4610654356       16.8351235099        5.9252643278
  N        18.8347743043       16.7847282563        5.9793808466
  N         8.0168302422       16.8033589452       16.8033588361
  N        18.8347724004        5.9793830619       16.7847308055
  N         8.0069209667        5.9511175134        5.9511178417
  N         3.6394062946        5.9842143474        5.9842144526
  N        14.4610638002        5.9252651221       16.8351241098
  N        16.6619075171        5.9696336347       18.9791240251
  N        16.6369820365       16.7916958319        8.1555373461
  N        16.6600242015       16.7883442763        3.7851724113
  N        16.6272003257        5.9866783928       14.6072686109
  N         5.8074359123        5.9752772756        3.7850290941
  N         5.8500078083       16.7874877533       14.6057767555
  N         5.8266997928       16.7909637522       18.9775795042
  N         5.8403943768        5.9713893125        8.1558250320
  C        11.2498156177       15.7646490343       15.7646484357
  H        11.2641598804       14.9891865644       14.9891855638
  C        11.2212396549        4.8733601974        4.8733606483
  H        11.2104237947        4.0980451931        4.0980458699
  C         0.4195106338       15.7217688091        4.9229800570
  H         0.4198414894       14.9453755656        4.1483271870
  C         0.4195087009        4.9229814731       15.7217690045
  H         0.4198389527        4.1483291798       14.9453754848
  C        11.2456512796        6.9892964791       15.7610799163
  H        11.2597663536        7.7641329384       14.9850496380
  C        11.2260246858       17.8841957427        4.8799170395
  H        11.2147041889       18.6620933607        4.1071524075
  C         0.4145528031        7.0423167144        4.9258201585
  H         0.4156116932        7.8182341807        4.1506370844
  C         0.4247056657       17.8418075637       15.7252734540
  H         0.4253265421       18.6165867811       14.9489624071
  C        11.2456531524       15.7610794634        6.9892959879
  H        11.2597676131       14.9850493302        7.7641320596
  C        11.2260231949        4.8799175701       17.8841960455
  H        11.2147033715        4.1071529160       18.6620939467
  C         0.4247049348       15.7252738726       17.8418062676
  H         0.4253254845       14.9489625449       18.6165852370
  C         0.4145530371        4.9258198848        7.0423171690
  H         0.4156123202        4.1506370009        7.8182348555
  C        11.2395149035        6.9894870891        6.9894868517
  H        11.2529343207        7.7649084388        7.7649078941
  C        11.2302630188       17.8810106952       17.8810103137
  H        11.2192134265       18.6563579128       18.6563574619
  C         0.4208796799        7.0391898407       17.8385856250
  H         0.4221570551        7.8149558165       18.6139581919
  C         0.4208795853       17.8385842098        7.0391885849
  H         0.4221564815       18.6139568443        7.8149549491
  C        15.5748411605       11.3797352443       15.7278772628
  H        14.7873486847       11.3768494754       14.9652522990
  C        15.6088874941        0.5615319525        4.9093113905
  H        14.8420517152        0.5617285578        4.1246957592
  C         4.7782277068       11.3811400132        4.9245129065
  H         3.9979696251       11.3815772076        4.1537743951
  C         4.7735018983        0.5616299503       15.7213418168
  H         4.0036091070        0.5616155131       14.9402231629
  C        15.5629997586       11.3798969955        7.0409975645
  H        14.7773625285       11.3774855393        7.8052168414
  C        15.6088746485        0.5618906374       17.8484635103
  H        14.8412621020        0.5622339296       18.6322917250
  C         4.7851686538       11.3817384817       17.8367010309
  H         4.0042400773       11.3815054564       18.6069467959
  C         4.7627467335        0.5599301389        7.0493809139
  H         3.9932245007        0.5596296711        7.8307574232
  C         6.9158177309       11.3815986957       15.7332851670
  H         7.6948916012       11.3821703153       14.9612620196
  C         6.8633927077        0.5618718032        4.9160372058
  H         7.6334924571        0.5629325231        4.1349305019
  C        17.6921991778       11.3820807926        4.9390382047
  H        18.4704053908       11.3831874725        4.1658254156
  C        17.7061674018        0.5620465515       15.7109999415
  H        18.4748826845        0.5619076495       14.9288931828
  C         6.9076851225       11.3795168172        7.0290346688
  H         7.6866996948       11.3795228952        7.8012865644
  C         6.8750759780        0.5628568000       17.8536870723
  H         7.6457887649        0.5634985469       18.6340863638
  C        17.7053799289       11.3828518771       17.8294353136
  H        18.4834250010       11.3844701417       18.6027359590
  C        17.7049467574        0.5620972635        7.0483389130
  H        18.4733853163        0.5620371599        7.8307301641
  C        15.5748420211       15.7278764420       11.3797364738
  H        14.7873494641       14.9652514991       11.3768522762
  C        15.6088877049        4.9093110644        0.5615300467
  H        14.8420524022        4.1246950588        0.5617262987
  C         4.7735029343       15.7213411614        0.5616288740
  H         4.0036099357       14.9402225611        0.5616145039
  C         4.7782270704        4.9245131198       11.3811412772
  H         3.9979690421        4.1537746373       11.3815783310
  C         6.9158181441       15.7332852950       11.3815976024
  H         7.6948918093       14.9612619612       11.3821692355
  C         6.8633920242        4.9160369927        0.5618728088
  H         7.6334918157        4.1349302039        0.5629331375
  C        17.7061680846       15.7110003508        0.5620467696
  H        18.4748830597       14.9288935982        0.5619077278
  C        17.6921978239        4.9390370223       11.3820780157
  H        18.4704047050        4.1658240514       11.3831875847
  C        15.5629990481        7.0409968013       11.3798952337
  H        14.7773619385        7.8052171461       11.3774866970
  C        15.6088758654       17.8484645290        0.5618891699
  H        14.8412635471       18.6322929747        0.5622322547
  C         4.7627459797        7.0493807970        0.5599301617
  H         3.9932236969        7.8307572169        0.5596296287
  C         4.7851694177       17.8367013600       11.3817387193
  H         4.0042408433       18.6069470956       11.3815056763
  C         6.9076846803        7.0290346908       11.3795165786
  H         7.6866993978        7.8012862846       11.3795225715
  C         6.8750768839       17.8536866217        0.5628568997
  H         7.6457895642       18.6340860955        0.5634985327
  C        17.7049467834        7.0483395576        0.5621000891
  H        18.4733853184        7.8307308496        0.5620414153
  C        17.7053806309       17.8294339455       11.3828488624
  H        18.4834259260       18.6027345672       11.3844665448
 Kr        14.4585371684       11.3611768284       11.3611768733
