     409
 i =      96, E =    -5186.5826882330
  N         3.0473365230        5.2050588905       16.0163481096
  C         1.7296322868        5.4762223534       16.2853875314
  N        13.8642241919        5.2044027369        5.2044670357
  C        12.5470200997        5.4745768238        5.4745574823
  N        19.7296645146       17.5722652789       16.0162613843
  C        21.0476491128       17.3008772684       16.2850687836
  N         8.9099539642       17.5728060147        5.2047805197
  C        10.2272267788       17.3022641630        5.4744591891
  N        19.7293210581        5.2047259197        6.7606601085
  C        21.0471556433        5.4759311376        6.4917177808
  N         8.9099516512        5.2047422409       17.5727714551
  C        10.2272288409        5.4744665758       17.3022777895
  N         3.0472259635       17.5725896716        6.7607120853
  C         1.7295166097       17.3011638850        6.4916557797
  N        13.8649760064       17.5724629486       17.5724386479
  C        12.5476762204       17.3023433974       17.3023504180
  N        16.0149667466        3.0483745818        5.2047924291
  C        16.2842336138        1.7306608021        5.4758655239
  N        16.0158649545       13.8653175839       16.0165263146
  C        16.2860322483       12.5482018143       16.2864142894
  N        16.0155764982       19.7304782003       17.5722161736
  C        16.2843374224       21.0483854336       17.3008029074
  N        16.0153978950        8.9113736026        6.7601814959
  C        16.2855757325       10.2283572791        6.4901723920
  N         6.7594351401       19.7309925809        5.2048144251
  C         6.4901162375       21.0488809977        5.4757346184
  N         6.7590998791        8.9114780005       16.0165481172
  C         6.4889258581       10.2285521772       16.2864739063
  N         6.7593358554        3.0487798832       17.5727062058
  C         6.4904211604        1.7310263494       17.3013474497
  N         6.7590921994       13.8653650905        6.7605288528
  C         6.4890310499       12.5483207998        6.4904686979
  N         5.2036649004       16.0164984416        3.0486801227
  C         5.4749617137       16.2855799765        1.7309674446
  N         5.2032474589        5.2047810370       13.8657283253
  C         5.4732963607        5.4748506844       12.5485025256
  N        17.5715295826       16.0161408255       19.7304633030
  C        17.3000909014       16.2849606169       21.0484637192
  N        17.5714843576        5.2044998065        8.9109560946
  C        17.3014097640        5.4746174813       10.2281733244
  N         5.2033628756        6.7606907914       19.7309766586
  C         5.4742781698        6.4914859829       21.0488036534
  N         5.2034694575       17.5727489899        8.9112291260
  C         5.4733778936       17.3023204112       10.2284449271
  N        17.5711996787        6.7604236726        3.0484354992
  C        17.2999913898        6.4913355389        1.7307285947
  N        17.5716918399       17.5723943382       13.8656640342
  C        17.3017182712       17.3021133151       12.5483056985
  N         5.2031294195        3.0485697838        6.7606469582
  C         5.4742415512        1.7309072893        6.4913712337
  N         5.2037095882       13.8658290263       17.5726932419
  C         5.4734886867       12.5485729521       17.3022957194
  N        17.5714133688       19.7306115247        6.7604071996
  C        17.3001750097       21.0484942293        6.4913793558
  N        17.5715205277        8.9108402909       17.5724886512
  C        17.3016125394       10.2280947128       17.3021291213
  N         5.2039370158       19.7308619586       16.0164586834
  C         5.4750099217       21.0487125232       16.2855004757
  N         5.2030027201        8.9113443822        5.2047740180
  C         5.4732264721       10.2284981802        5.4748417737
  N        17.5712446337        3.0485620289       16.0161116041
  C        17.2998803175        1.7307667435       16.2850367214
  N        17.5716776515       13.8655639233        5.2046386030
  C        17.3014625151       12.5482661442        5.4746294930
  N         3.0477095837       16.0165444523       17.5724945231
  C         1.7299649350       16.2853303643       17.3009115774
  N        13.8642419886       16.0163854750        6.7600946784
  C        12.5472145513       16.2862953706        6.4898585068
  N        19.7295313646       16.0161363276        5.2047973267
  C        21.0474699324       16.2851790459        5.4760398370
  N         8.9103900483       16.0167514767       16.0167301353
  C        10.2274877701       16.2867541072       16.2867596340
  N        19.7294486363        6.7604110286       17.5724363379
  C        21.0472956559        6.4916328784       17.3011439888
  N         8.9102130201        6.7603704068        6.7604251816
  C        10.2272121368        6.4903110485        6.4902970309
  N         3.0468606363        6.7609911059        5.2050770895
  C         1.7292182709        6.4917442221        5.4761528230
  N        13.8642404326        6.7600517028       16.0163467388
  C        12.5472172610        6.4898687429       16.2863120660
  N        16.0152119572        5.2046653839       19.7305905691
  C        16.2842614040        5.4757473910       21.0484579620
  N        16.0156637968       16.0165528045        8.9112424745
  C        16.2859714634       16.2864261848       10.2282781277
  N        16.0153590406       17.5721228308        3.0484543969
  C        16.2843134188       17.3006609835        1.7307382688
  N        16.0155545868        6.7601284956       13.8651961121
  C        16.2856471825        6.4901656904       12.5481722706
  N         6.7590797681        5.2048067294        3.0486454452
  C         6.4898752410        5.4758318950        1.7310126002
  N         6.7592167609       16.0165976683       13.8654773706
  C         6.4889740615       16.2864756705       12.5483917102
  N         6.7596433241       17.5727152054       19.7308688659
  C         6.4906441789       17.3014183269       21.0488235952
  N         6.7590032299        6.7605329130        8.9116144694
  C         6.4889504866        6.4904613035       10.2285916142
  N        19.7294508037       17.5724312277        6.7604171141
  C        21.0472972053       17.3011463319        6.4916330940
  N         8.9101321156       17.5726296971       17.5726077254
  C        10.2274487433       17.3024290096       17.3024341184
  N         3.0468558090        5.2050776079        6.7609900010
  C         1.7292298032        5.4761515912        6.4917453050
  N        13.8645866802        5.2045048613       17.5725143281
  C        12.5473613160        5.4743887713       17.3021446462
  N         3.0477080445       17.5724946227       16.0165447057
  C         1.7299699464       17.3009122368       16.2853297853
  N        13.8645895934       17.5725568393        5.2045430457
  C        12.5473573818       17.3021341541        5.4743727398
  N        19.7295303232        5.2047954767       16.0161464522
  C        21.0474628943        5.4760444421       16.2851821162
  N         8.9097858223        5.2045666721        5.2046211165
  C        10.2269747308        5.4746464655        5.4746327675
  N         6.7596515320       19.7308708235       17.5727070705
  C         6.4906405076       21.0488258338       17.3014183958
  N         6.7589751018        8.9116143806        6.7605578063
  C         6.4889620529       10.2285897580        6.4904560680
  N         6.7591006856        3.0486478209        5.2048240034
  C         6.4898694582        1.7310074104        5.4758272013
  N         6.7592062894       13.8654770783       16.0165869658
  C         6.4889752392       12.5483943101       16.2864789012
  N        16.0153440982        3.0484537017       17.5721062857
  C        16.2843173861        1.7307438511       17.3006662866
  N        16.0155820598       13.8651925684        6.7601625958
  C        16.2856430937       12.5481719851        6.4901519988
  N        16.0151965815       19.7305899245        5.2046779887
  C        16.2842617103       21.0484617603        5.4757409016
  N        16.0156777723        8.9112408521       16.0165425673
  C        16.2859706574       10.2282771188       16.2864326989
  N        17.5714233323        6.7603889965       19.7306082070
  C        17.3001686572        6.4913797798       21.0484933478
  N        17.5715108194       17.5725024911        8.9108431109
  C        17.3016185374       17.3021278530       10.2280922535
  N         5.2031084016        6.7606300521        3.0485713184
  C         5.4742475891        6.4913760573        1.7308981032
  N         5.2037200105       17.5727039088       13.8658277355
  C         5.4734862840       17.3022938293       12.5485737543
  N        17.5712640997       16.0161236945        3.0485613090
  C        17.2998779807       16.2850297770        1.7307607175
  N        17.5716446100        5.2046102529       13.8655657359
  C        17.3014733928        5.4746361403       12.5482650259
  N         5.2039285401       16.0164665045       19.7308586565
  C         5.4750111919       16.2854981217       21.0487150022
  N         5.2030305876        5.2047488649        8.9113474302
  C         5.4732203712        5.4748523606       10.2284893431
  N        17.5715195180       19.7304612981       16.0161312403
  C        17.3000943126       21.0484690801       16.2849602385
  N        17.5715183772        8.9109537893        5.2045332270
  C        17.3013938912       10.2281748404        5.4746108128
  N         5.2036744648        3.0486815069       16.0164851206
  C         5.4749554271        1.7309650466       16.2855841376
  N         5.2032245729       13.8657291974        5.2048043448
  C         5.4733036685       12.5485044917        5.4748440986
  N        17.5711775303        3.0484298011        6.7604488826
  C        17.2999979816        1.7307321011        6.4913283358
  N        17.5717039113       13.8656647154       17.5723817763
  C        17.3017153411       12.5483106731       17.3021160438
  N         5.2033803700       19.7309730275        6.7607002483
  C         5.4742772490       21.0488073915        6.4914819079
  N         5.2034550682        8.9112328156       17.5727386732
  C         5.4733788550       10.2284423594       17.3023256447
  N        19.7293207895        6.7606605884        5.2047256140
  C        21.0471542010        6.4917186555        5.4759305304
  N         8.9102973714        6.7602168816       16.0165313455
  C        10.2273702817        6.4899570406       16.2863759152
  N         3.0472237758        6.7607105498       17.5725963582
  C         1.7295173169        6.4916605492       17.3011669140
  N        13.8639309163        6.7602640226        6.7603287667
  C        12.5469525848        6.4902615543        6.4902418717
  N         3.0473349850       16.0163443810        5.2050639975
  C         1.7296407656       16.2853882452        5.4762216968
  N        13.8645639641       16.0165788958       16.0165542163
  C        12.5474494251       16.2866599309       16.2866672913
  N        19.7296673192       16.0162613978       17.5722649337
  C        21.0476420750       16.2850675413       17.3008782795
  N         8.9103011012       16.0165692584        6.7602518513
  C        10.2273659295       16.2863685019        6.4899432436
  N         6.7593230412       17.5727163343        3.0487800530
  C         6.4904254562       17.3013415407        1.7310252707
  N         6.7591184903        6.7605086102       13.8653642230
  C         6.4890241391        6.4904757287       12.5483170690
  N         6.7594213292        5.2048007194       19.7309916635
  C         6.4901176077        5.4757383659       21.0488850401
  N         6.7591109273       16.0165616563        8.9114785487
  C         6.4889231947       16.2864701230       10.2285438640
  N        16.0155871885       17.5722248449       19.7304787299
  C        16.2843398032       17.3007977543       21.0483842428
  N        16.0153658289        6.7601451781        8.9113736358
  C        16.2855800896        6.4901908424       10.2283544252
  N        16.0149889150        5.2047671895        3.0483784729
  C        16.2842273898        5.4758732574        1.7306555434
  N        16.0158528317       16.0165389039       13.8653149050
  C        16.2860337593       16.2864101289       12.5482029054
 Zn        14.7216719291       14.7222252487       14.7222248577
 Cl        13.4897827491       13.4904732662       13.4904728624
 Zn        14.7229836721        3.9096284212        3.9096261939
 Cl        13.4871255558        2.6798473004        2.6798477936
 Zn         3.9086115538       14.7241750071        3.9098985825
 Cl         2.6785652474       13.4885844087        2.6801353461
 Zn         3.9086102770        3.9099008943       14.7241742367
 Cl         2.6785640243        2.6801361947       13.4885857833
 Zn         8.0535227870        8.0544258510       14.7222415323
 Cl         9.2850850118        9.2862483696       13.4902791486
 Zn         8.0514230759       18.8681456688        3.9102510022
 Cl         9.2873997974       20.0968569507        2.6795663821
 Zn        18.8667382732        8.0522757832        3.9099017046
 Cl        20.0954711082        9.2883635335        2.6793389956
 Zn        18.8667440100       18.8673967363       14.7244632040
 Cl        20.0960176541       20.0966073250       13.4875614398
 Zn         8.0535232509       14.7222409373        8.0544238347
 Cl         9.2850846564       13.4902800772        9.2862472214
 Zn         8.0514227490        3.9102529122       18.8681459143
 Cl         9.2873987998        2.6795667861       20.0968575729
 Zn        18.8667439559       14.7244639836       18.8673953952
 Cl        20.0960178315       13.4875615296       20.0966067676
 Zn        18.8667384671        3.9099044110        8.0522748901
 Cl        20.0954683376        2.6793406233        9.2883631562
 Zn        14.7212722888        8.0543979743        8.0543942817
 Cl        13.4893576475        9.2861293355        9.2861293295
 Zn        14.7239894211       18.8674657147       18.8674658986
 Cl        13.4871693978       20.0967564830       20.0967557057
 Zn         3.9087782174        8.0525411781       18.8681007258
 Cl         2.6783100037        9.2887396614       20.0967998877
 Zn         3.9087780873       18.8681011168        8.0525401975
 Cl         2.6783118149       20.0967985745        9.2887378116
 Zn        14.7214663943       14.7221224938        8.0542882659
 Cl        13.4895642834       13.4903234548        9.2859655410
 Zn        14.7234755187        3.9098965054       18.8677393100
 Cl        13.4871415325        2.6794585163       20.0963672706
 Zn         3.9092268541       14.7244463584       18.8680252197
 Cl         2.6786890923       13.4882791559       20.0967008567
 Zn         3.9081748634        3.9098330506        8.0528146285
 Cl         2.6781850974        2.6800674151        9.2884223892
 Zn         8.0534889775        8.0545258656        8.0545211815
 Cl         9.2850831719        9.2863929783        9.2863928357
 Zn         8.0514398672       18.8677601322       18.8677605825
 Cl         9.2881598194       20.0970677820       20.0970670685
 Zn        18.8665578402        8.0519864623       18.8676051595
 Cl        20.0959773581        9.2886553452       20.0968820603
 Zn        18.8665590372       18.8676027829        8.0519839750
 Cl        20.0959777737       20.0968811847        9.2886541314
 Zn        14.7214670144        8.0542913566       14.7221244218
 Cl        13.4895643729        9.2859653148       13.4903240592
 Zn        14.7234765930       18.8677371718        3.9098933891
 Cl        13.4871420043       20.0963676649        2.6794566314
 Zn         3.9081745800        8.0528180575        3.9098293988
 Cl         2.6781829453        9.2884246332        2.6800646962
 Zn         3.9092269822       18.8680242653       14.7244469027
 Cl         2.6786903055       20.0967003033       13.4882788264
 Zn         8.0535612938       14.7223410425       14.7223420518
 Cl         9.2850798132       13.4904293736       13.4904293405
 Zn         8.0514045310        3.9098290705        3.9098237930
 Cl         9.2866490562        2.6797555959        2.6797562949
 Zn        18.8669091491       14.7241855490        3.9100903894
 Cl        20.0954790827       13.4878670096        2.6795912986
 Zn        18.8669091089        3.9100938228       14.7241875473
 Cl        20.0954758294        2.6795931900       13.4878694994
 Zn         5.9818901579        5.9842692293       16.7948271401
 Zn        16.7930329992       16.7942959283       16.7942932531
 Zn        16.7921431817        5.9837712384        5.9837814708
 Zn         5.9818916796       16.7948285074        5.9842701558
 Zn         5.9813141157        5.9842639597        5.9842670196
 Zn        16.7925685084       16.7943071464        5.9837518199
 Zn         5.9824693831       16.7948248467       16.7948217660
 Zn        16.7925646346        5.9837467909       16.7943041122
  N         3.7938146876        5.9822671553       16.7951494716
  N        14.6104292874        5.9824641721        5.9823893339
  N        18.9831348777       16.7949396749       16.7949403921
  N         8.1638041207       16.7947735420        5.9827285588
  N        18.9826795762        5.9821566583        5.9821571584
  N         8.1638005306        5.9827727860       16.7948162116
  N         3.7938149532       16.7951528558        5.9822602187
  N        14.6110393657       16.7944191146       16.7944460665
  N        16.7937089991        3.7949901447        5.9819749633
  N        16.7938022757       14.6117872499       16.7943323399
  N        16.7943386212       18.9839590736       16.7949828331
  N        16.7935575363        8.1648445692        5.9826077960
  N         5.9809526194       18.9844084106        5.9823261784
  N         5.9815292321        8.1650828051       16.7948060918
  N         5.9808500219        3.7952957624       16.7952345623
  N         5.9813424015       14.6119234158        5.9826444093
  N         5.9808653322       16.7952196894        3.7952910736
  N         5.9813111860        5.9826712439       14.6119266926
  N        16.7943277278       16.7949731665       18.9839589421
  N        16.7935941462        5.9826506516        8.1648413742
  N         5.9809675036        5.9823414017       18.9844066850
  N         5.9815178191       16.7947902432        8.1650836351
  N        16.7936870054        5.9820023120        3.7949876488
  N        16.7938160116       16.7943178838       14.6117880391
  N         5.9805974204        3.7952136247        5.9822591103
  N         5.9817510106       14.6119715650       16.7947910886
  N        16.7939619047       18.9840481964        5.9818909605
  N        16.7935800247        8.1647799720       16.7943962617
  N         5.9812013103       18.9843493029       16.7951815673
  N         5.9811381469        8.1651586331        5.9826351983
  N        16.7940556632        3.7950375598       16.7949086057
  N        16.7937534656       14.6117218537        5.9826475291
  N         3.7941902748       16.7953311400       16.7953289347
  N        14.6107220234       16.7944905991        5.9824790460
  N        18.9829089241       16.7948916436        5.9820221991
  N         8.1640077637       16.7946351139       16.7946585389
  N        18.9829102848        5.9820262100       16.7948856292
  N         8.1636230996        5.9826197367        5.9825546015
  N         3.7934276436        5.9825028371        5.9825046129
  N        14.6107177783        5.9825274496       16.7945384617
  N        16.7939451469        5.9819106365       18.9840520275
  N        16.7935964915       16.7943807336        8.1647743254
  N        16.7940398192       16.7948914070        3.7950393672
  N        16.7937846290        5.9826851167       14.6117182345
  N         5.9806217464        5.9822768287        3.7952153669
  N         5.9817392636       16.7947797012       14.6119694528
  N         5.9812110079       16.7951749247       18.9843476796
  N         5.9811045577        5.9826648108        8.1651602510
  C        11.3874437664       15.7364608706       15.7364584989
  H        11.3873424825       14.9611742917       14.9611696407
  C        11.3869749729        4.9244908182        4.9244989768
  H        11.3868992135        4.1492620539        4.1492771635
  C         0.5687563738       15.7351129448        4.9269697188
  H         0.5699285241       14.9595445832        4.1520531697
  C         0.5687594019        4.9269692370       15.7351151023
  H         0.5699269178        4.1520526945       14.9595480810
  C        11.3872468131        7.0400119077       15.7359166526
  H        11.3872275763        7.8152085526       14.9605452958
  C        11.3872587998       17.8522789346        4.9243377965
  H        11.3872479155       18.6275493091        4.1491683851
  C         0.5683662117        7.0417910714        4.9267467725
  H         0.5694419264        7.8172522769        4.1517221767
  C         0.5689646788       17.8500233046       15.7350839096
  H         0.5700417332       18.6249822202       14.9595606239
  C        11.3872517563       15.7359210089        7.0400150813
  H        11.3872280801       14.9605535985        7.8152163601
  C        11.3872541367        4.9243343239       17.8522742889
  H        11.3872469853        4.1491601578       18.6275406435
  C         0.5689668879       15.7350843096       17.8500225051
  H         0.5700419452       14.9595604090       18.6249819900
  C         0.5683642187        4.9267481995        7.0417892184
  H         0.5694420951        4.1517224734        7.8172515810
  C        11.3870760261        7.0405484829        7.0405560371
  H        11.3870988066        7.8158251985        7.8158393838
  C        11.3875751895       17.8524372181       17.8524342075
  H        11.3876111174       18.6276532882       18.6276476671
  C         0.5685860244        7.0416399416       17.8504251574
  H         0.5695436623        7.8170845931       18.6254671005
  C         0.5685856969       17.8504232364        7.0416395857
  H         0.5695453552       18.6254642826        7.8170842478
  C        15.7357484719       11.3882673379       15.7361644231
  H        14.9604241349       11.3882438527       14.9609097874
  C        15.7340979940        0.5697542425        4.9266404491
  H        14.9584911859        0.5707714323        4.1517531990
  C         4.9230895713       11.3885261644        4.9247942029
  H         4.1478070179       11.3885075093        4.1496293141
  C         4.9258125079        0.5700363989       15.7354254586
  H         4.1508561602        0.5710153869       14.9598801201
  C        15.7352125938       11.3882635260        7.0402965904
  H        14.9597881504       11.3882546992        7.8154494535
  C        15.7342249726        0.5697264858       17.8498495313
  H        14.9586735765        0.5707493429       18.6247988084
  C         4.9233262590       11.3885129045       17.8523548622
  H         4.1481325353       11.3885110335       18.6276014404
  C         4.9249225543        0.5700260176        7.0414185544
  H         4.1499064111        0.5710178210        7.8168854279
  C         7.0390585177       11.3884343832       15.7360487011
  H         7.8142477927       11.3883725696       14.9606756430
  C         7.0400160565        0.5701234881        4.9264697134
  H         7.8155041511        0.5712464222        4.1514727266
  C        17.8514863796       11.3882163833        4.9244995746
  H        18.6266404077       11.3881490015        4.1492151553
  C        17.8490843300        0.5698010168       15.7348382875
  H        18.6239673293        0.5709048895       14.9592521622
  C         7.0392646585       11.3884585126        7.0407479766
  H         7.8145538445       11.3883819020        7.8160204141
  C         7.0405336320        0.5701362085       17.8506509827
  H         7.8159820807        0.5712429827       18.6256682335
  C        17.8517063281       11.3882194429       17.8521848755
  H        18.6268806636       11.3881435852       18.6274412756
  C        17.8493402407        0.5698140370        7.0413626647
  H        18.6243256951        0.5708987890        7.8168544004
  C        15.7357474597       15.7361674593       11.3882649086
  H        14.9604208492       14.9609134001       11.3882431435
  C        15.7340994830        4.9266373701        0.5697576695
  H        14.9584956460        4.1517488052        0.5707715112
  C         4.9258120326       15.7354256071        0.5700332655
  H         4.1508546730       14.9598812578        0.5710143031
  C         4.9230939863        4.9247931229       11.3885274786
  H         4.1478134849        4.1496244664       11.3885065634
  C         7.0390605179       15.7360502348       11.3884362296
  H         7.8142510867       14.9606779949       11.3883718125
  C         7.0400123875        4.9264687251        0.5701200207
  H         7.8155002278        4.1514688959        0.5712455895
  C        17.8490864817       15.7348395611        0.5698027309
  H        18.6239715843       14.9592542928        0.5709028897
  C        17.8514820395        4.9244977454       11.3882167909
  H        18.6266316483        4.1492097717       11.3881489322
  C        15.7352093847        7.0402940144       11.3882636870
  H        14.9597802090        7.8154439197       11.3882544548
  C        15.7342271641       17.8498510701        0.5697281573
  H        14.9586776626       18.6248014903        0.5707491945
  C         4.9249190514        7.0414177016        0.5700270052
  H         4.1499014775        7.8168829363        0.5710183403
  C         4.9233282644       17.8523567690       11.3885113952
  H         4.1481367212       18.6276034104       11.3885095349
  C         7.0392681873        7.0407463259       11.3884584908
  H         7.8145586782        7.8160145694       11.3883816381
  C         7.0405339985       17.8506520143        0.5701344787
  H         7.8159815822       18.6256703228        0.5712419653
  C        17.8493435426        7.0413611705        0.5698165785
  H        18.6243315414        7.8168505449        0.5708985389
  C        17.8517039045       17.8521864603       11.3882186738
  H        18.6268768839       18.6274440221       11.3881424829
 Kr         0.0839505243       10.7921815235       10.7921814375
