     409
 i =      96, E =    -5186.5828841403
  N         2.8145311486        5.2055895160       16.0179841368
  C         1.4964251816        5.4769140080       16.2861671733
  N        13.6303997132        5.2032064866        5.2032079500
  C        12.3128314673        5.4736424468        5.4736449253
  N        19.4993556226       17.5728374923       16.0165110163
  C        20.8174244259       17.3016501727       16.2855389123
  N         8.6776731071       17.5758414076        5.2066940423
  C         9.9954686724       17.3042789159        5.4749144683
  N        19.4928019598        5.2036525464        6.7600997685
  C        20.8108536532        5.4762760041        6.4924138969
  N         8.6776729798        5.2066939667       17.5758407396
  C         9.9954660142        5.4749160476       17.3042759456
  N         2.8135290389       17.5742748563        6.7621370614
  C         1.4957462266       17.3022702690        6.4929585335
  N        13.6373626099       17.5727449617       17.5727443783
  C        12.3196112078       17.3030932408       17.3030928209
  N        15.7808864667        3.0460930096        5.2021168891
  C        16.0494456969        1.7283382104        5.4733044024
  N        15.7882184859       13.8644913676       16.0144964018
  C        16.0581270378       12.5472458522       16.2839278243
  N        15.7875233376       19.7293900895       17.5715423659
  C        16.0552031302       21.0472210610       17.2994699657
  N        15.7826721152        8.9106549737        6.7596064664
  C        16.0529574121       10.2277850039        6.4898981003
  N         6.5255421502       19.7333968293        5.2081542735
  C         6.2563945066       21.0511757634        5.4791907627
  N         6.5280195089        8.9131721659       16.0186959771
  C         6.2590927498       10.2305930586       16.2892038349
  N         6.5277683098        3.0507393888       17.5766082522
  C         6.2610831118        1.7326205874       17.3044615960
  N         6.5264221306       13.8677917504        6.7620722091
  C         6.2565057560       12.5505021937        6.4921234269
  N         4.9732265191       16.0196171653        3.0497190831
  C         5.2457470992       16.2878496308        1.7320635824
  N         4.9716234717        5.2055418020       13.8681961229
  C         5.2410586849        5.4756660913       12.5507238075
  N        17.3413532126       16.0139725781       19.7294627959
  C        17.0701570524       16.2824456624       21.0473547840
  N        17.3366417587        5.2027150463        8.9099018706
  C        17.0681521197        5.4732433566       10.2274011736
  N         4.9695937463        6.7637236537       19.7330545906
  C         5.2402750625        6.4950595686       21.0508994422
  N         4.9724417599       17.5749405376        8.9135432427
  C         5.2433271472       17.3054120357       10.2308632415
  N        17.3352719423        6.7587822407        3.0462636473
  C        17.0646977227        6.4899120461        1.7284531487
  N        17.3434032240       17.5705208366       13.8645111180
  C        17.0737989181       17.3001641969       12.5470904961
  N         4.9673303141        3.0496452057        6.7633008372
  C         5.2390607402        1.7319222975        6.4948896967
  N         4.9747544066       13.8683249234       17.5759253390
  C         5.2444029223       12.5508238640       17.3058866601
  N        17.3363982100       19.7298053766        6.7584427453
  C        17.0652365593       21.0475621118        6.4897093953
  N        17.3397938723        8.9097404108       17.5720496208
  C        17.0720289246       10.2273104235       17.3008743560
  N         4.9755314750       19.7330204788       16.0194037819
  C         5.2469478214       21.0508451110       16.2877549683
  N         4.9694960108        8.9135659853        5.2066162791
  C         5.2400546661       10.2308909436        5.4762053604
  N        17.3400052503        3.0464838118       16.0136897041
  C        17.0695057947        1.7285345338       16.2822883141
  N        17.3401017974       13.8643805067        5.2042350897
  C        17.0698560286       12.5470154270        5.4739365234
  N         2.8173303361       16.0189175064       17.5753436744
  C         1.4994054732       16.2866569478       17.3027258743
  N        13.6335843632       16.0155600812        6.7586210408
  C        12.3161650003       16.2861204275        6.4889707766
  N        19.4965339816       16.0162728243        5.2040881993
  C        20.8144070314       16.2853833668        5.4761415392
  N         8.6806379754       16.0187280849       16.0187271379
  C         9.9983196650       16.2881577396       16.2881570103
  N        19.4954474197        6.7595885866       17.5735800079
  C        20.8137118352        6.4918270306       17.3019559372
  N         8.6755406052        6.7607452321        6.7607457638
  C         9.9927958539        6.4902489939        6.4902506958
  N         2.8108244367        6.7633820026        5.2070320112
  C         1.4928673502        6.4939166576        5.4778436706
  N        13.6335836769        6.7586222479       16.0155593023
  C        12.3161600951        6.4889716835       16.2861187210
  N        15.7825767668        5.2011378568       19.7294180799
  C        16.0501857293        5.4728228512       21.0473246886
  N        15.7856274629       16.0152694846        8.9106382942
  C        16.0567355359       16.2843117054       10.2277581496
  N        15.7857142125       17.5706742339        3.0459180772
  C        16.0543918827       17.2990588126        1.7282546829
  N        15.7852113641        6.7604203055       13.8644391860
  C        16.0543110968        6.4902840944       12.5471967278
  N         6.5221323671        5.2070579548        3.0502073495
  C         6.2547590140        5.4787188093        1.7322724277
  N         6.5297561025       16.0194237439       13.8680393718
  C         6.2599769870       16.2895307951       12.5506549442
  N         6.5311582714       17.5758917804       19.7332348624
  C         6.2626564800       17.3041085923       21.0511078699
  N         6.5248865231        6.7627992969        8.9133877358
  C         6.2557191866        6.4924981532       10.2307257408
  N        19.4954480062       17.5735784477        6.7595879773
  C        20.8137108475       17.3019538633        6.4918273488
  N         8.6814889476       17.5746182528       17.5746167940
  C         9.9989948769       17.3041240340       17.3041229553
  N         2.8108249779        5.2070320200        6.7633815862
  C         1.4928668686        5.4778434743        6.4939166030
  N        13.6338760000        5.2020426318       17.5714939212
  C        12.3162347518        5.4728842111       17.3021382014
  N         2.8173297654       17.5753452679       16.0189161985
  C         1.4994057490       17.3027271010       16.2866559529
  N        13.6338760639       17.5714932810        5.2020432699
  C        12.3162414405       17.3021376965        5.4728858231
  N        19.4965331266        5.2040881756       16.0162739006
  C        20.8144079093        5.4761408489       16.2853851979
  N         8.6738235423        5.2047504358        5.2047513223
  C         9.9918571441        5.4742361899        5.4742381490
  N         6.5311577606       19.7332355944       17.5758902175
  C         6.2626561312       21.0511100834       17.3041079313
  N         6.5248857043        8.9133903371        6.7627993457
  C         6.2557160530       10.2307224307        6.4924972520
  N         6.5221330859        3.0502074435        5.2070575561
  C         6.2547596526        1.7322732748        5.4787187032
  N         6.5297567823       13.8680422608       16.0194234109
  C         6.2599795075       12.5506524586       16.2895295015
  N        15.7857122774        3.0459198513       17.5706754300
  C        16.0543881873        1.7282505290       17.2990587459
  N        15.7852119629       13.8644427322        6.7604206056
  C        16.0543121582       12.5471925880        6.4902900837
  N        15.7825780329       19.7294185622        5.2011386790
  C        16.0501873916       21.0473192843        5.4728239157
  N        15.7856280033        8.9106429384       16.0152696258
  C        16.0567376198       10.2277541461       16.2843159862
  N        17.3363989812        6.7584442243       19.7298059952
  C        17.0652371955        6.4897107769       21.0475663901
  N        17.3397942628       17.5720502039        8.9097355411
  C        17.0720332645       17.3008764182       10.2273137666
  N         4.9673303075        6.7633007016        3.0496453244
  C         5.2390599975        6.4948900566        1.7319222141
  N         4.9747542224       17.5759255702       13.8683212959
  C         5.2444040567       17.3058845371       12.5508265717
  N        17.3400052660       16.0136903207        3.0464825580
  C        17.0695070722       16.2822907495        1.7285373542
  N        17.3401002899        5.2042358204       13.8643771683
  C        17.0698492344        5.4739363895       12.5470189699
  N         4.9755313904       16.0194048999       19.7330195101
  C         5.2469487353       16.2877562261       21.0508433021
  N         4.9694967654        5.2066154899        8.9135628697
  C         5.2400540984        5.4762021349       10.2308946578
  N        17.3413513428       19.7294649461       16.0139724699
  C        17.0701540254       21.0473526903       16.2824461263
  N        17.3366427006        8.9099057491        5.2027151766
  C        17.0681522875       10.2273951065        5.4732476933
  N         4.9732235140        3.0497190790       16.0196152725
  C         5.2457462115        1.7320649705       16.2878496022
  N         4.9716244731       13.8681995849        5.2055429078
  C         5.2410555951       12.5507215969        5.4756649397
  N        17.3352723171        3.0462642479        6.7587841751
  C        17.0646984766        1.7284493659        6.4899149412
  N        17.3434037812       13.8645164665       17.5705197853
  C        17.0738019466       12.5470851548       17.3001662543
  N         4.9695964864       19.7330533547        6.7637206414
  C         5.2402760063       21.0508992813        6.4950588401
  N         4.9724401986        8.9135469406       17.5749415768
  C         5.2433293028       10.2308616419       17.3054105203
  N        19.4928026289        6.7601000907        5.2036526493
  C        20.8108529201        6.4924139232        5.4762762171
  N         8.6782303511        6.7613830131       16.0187391682
  C         9.9956794524        6.4903287002       16.2877228311
  N         2.8135277440        6.7621389549       17.5742760643
  C         1.4957454460        6.4929581760       17.3022706279
  N        13.6308933736        6.7594829151        6.7594835200
  C        12.3133215067        6.4896983390        6.4897003926
  N         2.8145325785       16.0179851974        5.2055897697
  C         1.4964263140       16.2861656896        5.4769132732
  N        13.6360479209       16.0165077784       16.0165072080
  C        12.3187923666       16.2870438063       16.2870435753
  N        19.4993552270       16.0165120071       17.5728361413
  C        20.8174250622       16.2855397733       17.3016490358
  N         8.6782291631       16.0187405725        6.7613819200
  C         9.9956834245       16.2877221116        6.4903304870
  N         6.5277684417       17.5766068410        3.0507388965
  C         6.2610849870       17.3044624861        1.7326196767
  N         6.5264229811        6.7620736014       13.8677877469
  C         6.2565044275        6.4921205731       12.5505052215
  N         6.5255423437        5.2081537892       19.7333971181
  C         6.2563928909        5.4791918836       21.0511763431
  N         6.5280188217       16.0186973566        8.9131681789
  C         6.2590944541       16.2892014834       10.2305953260
  N        15.7875228105       17.5715445633       19.7293889157
  C        16.0552030769       17.2994725125       21.0472226515
  N        15.7826710983        6.7596066280        8.9106515662
  C        16.0529522501        6.4898988615       10.2277901993
  N        15.7808883583        5.2021168253        3.0460930163
  C        16.0494480488        5.4733043937        1.7283409762
  N        15.7882184975       16.0144980323       13.8644867004
  C        16.0581297092       16.2839314105       12.5472507127
 Zn        14.4954785134       14.7220825320       14.7220836513
 Cl        13.2610556844       13.4908400622       13.4908396611
 Zn        14.4922627862        3.9080829276        3.9080855324
 Cl        13.2513346085        2.6799780126        2.6799789446
 Zn         3.6800949178       14.7268571171        3.9100955575
 Cl         2.4494737357       13.4918693867        2.6787858495
 Zn         3.6800926227        3.9100948041       14.7268564862
 Cl         2.4494723922        2.6787866608       13.4918698693
 Zn         7.8208987558        8.0548722863       14.7241521313
 Cl         9.0527484069        9.2867231358       13.4911044927
 Zn         7.8160332444       18.8717339912        3.9142486122
 Cl         9.0543093927       20.1026936370        2.6862589225
 Zn        18.6256422273        8.0509687969        3.9074788261
 Cl        19.8576854629        9.2853996845        2.6766114717
 Zn        18.6334490086       18.8666775966       14.7233998966
 Cl        19.8658454701       20.0930573429       13.4849836473
 Zn         7.8208992824       14.7241532535        8.0548708810
 Cl         9.0527502435       13.4911041217        9.2867234135
 Zn         7.8160311775        3.9142479927       18.8717358328
 Cl         9.0543077493        2.6862600232       20.1026934221
 Zn        18.6334485717       14.7233996909       18.8666775087
 Cl        19.8658460651       13.4849830191       20.0930569740
 Zn        18.6256411446        3.9074778436        8.0509699419
 Cl        19.8576853228        2.6766112130        9.2854017703
 Zn        14.4920012639        8.0536302717        8.0536315474
 Cl        13.2594185588        9.2858640035        9.2858638852
 Zn        14.4989476201       18.8674426819       18.8674444172
 Cl        13.2624467920       20.0976124782       20.0976122404
 Zn         3.6782859472        8.0547319517       18.8687056573
 Cl         2.4456209699        9.2927591852       20.0950234700
 Zn         3.6782877947       18.8687039606        8.0547308449
 Cl         2.4456216352       20.0950237284        9.2927584699
 Zn        14.4937863619       14.7220552459        8.0536958496
 Cl        13.2601757942       13.4905516939        9.2855606634
 Zn        14.4956020770        3.9061992964       18.8654237968
 Cl        13.2567575904        2.6736599758       20.0910489811
 Zn         3.6820002495       14.7271508276       18.8705999028
 Cl         2.4509388598       13.4913376601       20.1005496630
 Zn         3.6765265151        3.9125019240        8.0549619769
 Cl         2.4442848505        2.6847717807        9.2921776610
 Zn         7.8189838747        8.0549941023        8.0549952279
 Cl         9.0520106655        9.2868976047        9.2868977598
 Zn         7.8230680078       18.8696784376       18.8696774118
 Cl         9.0628662790       20.0981244561       20.0981233271
 Zn        18.6272174443        8.0505738557       18.8689654706
 Cl        19.8591839172        9.2856743587       20.0992739947
 Zn        18.6272169117       18.8689612547        8.0505738036
 Cl        19.8591840682       20.0992722102        9.2856733812
 Zn        14.4937824270        8.0536959436       14.7220556291
 Cl        13.2601751033        9.2855607979       13.4905522513
 Zn        14.4956042562       18.8654211768        3.9062006859
 Cl        13.2567597613       20.0910466708        2.6736609271
 Zn         3.6765259968        8.0549611785        3.9125022115
 Cl         2.4442850452        9.2921768942        2.6847721490
 Zn         3.6819999365       18.8706008486       14.7271504299
 Cl         2.4509395677       20.1005500192       13.4913362198
 Zn         7.8230491307       14.7245819081       14.7245826828
 Cl         9.0537768138       13.4916075531       13.4916074215
 Zn         7.8089446249        3.9108533106        3.9108532737
 Cl         9.0458430435        2.6805817824        2.6805821411
 Zn        18.6312427626       14.7230750210        3.9096870246
 Cl        19.8638887064       13.4855261765        2.6826277991
 Zn        18.6312431591        3.9096843446       14.7230762299
 Cl        19.8638887857        2.6826270885       13.4855270785
 Zn         5.7434927225        5.9871263248       16.7993044517
 Zn        16.5631004600       16.7930223331       16.7930242713
 Zn        16.5583148185        5.9810596673        5.9810628091
 Zn         5.7434943985       16.7993042182        5.9871256283
 Zn         5.7410633689        5.9872160437        5.9872170187
 Zn        16.5606075028       16.7928815475        5.9807505781
 Zn         5.7464586625       16.8001386681       16.8001371739
 Zn        16.5606076878        5.9807494861       16.7928853664
  N         3.5603061399        5.9832715695       16.7972017632
  N        14.3768715920        5.9811785739        5.9811791049
  N        18.7529132108       16.7952969395       16.7952946032
  N         7.9313539354       16.7979646485        5.9848697835
  N        18.7464854216        5.9805122135        5.9805103080
  N         7.9313480339        5.9848726761       16.7979616278
  N         3.5603039333       16.7972019132        5.9832700100
  N        14.3829547314       16.7943701561       16.7943695746
  N        16.5586933894        3.7928830603        5.9797765073
  N        16.5656120078       14.6109857125       16.7927500193
  N        16.5654207131       18.9826881561       16.7937777444
  N        16.5592080474        8.1637314779        5.9809993739
  N         5.7470330953       18.9865817083        5.9852375412
  N         5.7496226746        8.1670106314       16.7964791185
  N         5.7488005986        3.7969592829       16.7992922147
  N         5.7491028866       14.6145928645        5.9838505024
  N         5.7488030266       16.7992932010        3.7969549341
  N         5.7491032385        5.9838523275       14.6145968558
  N        16.5654201704       16.7937794664       18.9826896355
  N        16.5592059643        5.9810005792        8.1637338773
  N         5.7470307348        5.9852401749       18.9865788477
  N         5.7496228648       16.7964803713        8.1670138843
  N        16.5586951951        5.9797765838        3.7928855865
  N        16.5656134302       16.7927515807       14.6109876539
  N         5.7435316246        3.7967247630        5.9842210791
  N         5.7522327564       14.6147916285       16.7976113921
  N        16.5605316430       18.9828349049        5.9789556715
  N        16.5617827048        8.1636327315       16.7942243668
  N         5.7523505779       18.9865719270       16.7986879992
  N         5.7467419541        8.1671159678        5.9850023415
  N        16.5633845002        3.7928792470       16.7930434280
  N        16.5629057346       14.6109017722        5.9824936949
  N         3.5636254809       16.7985337156       16.7985314315
  N        14.3799653209       16.7931982744        5.9800419791
  N        18.7496205378       16.7956349311        5.9806384869
  N         7.9344175864       16.7969147316       16.7969132989
  N        18.7496193148        5.9806391459       16.7956364374
  N         7.9281645902        5.9830962469        5.9830962483
  N         3.5571103198        5.9848374758        5.9848359447
  N        14.3799635295        5.9800447228       16.7931963648
  N        16.5605321946        5.9789583279       18.9828362124
  N        16.5617841167       16.7942242999        8.1636359765
  N        16.5633841856       16.7930443142        3.7928788093
  N        16.5629038896        5.9824949347       14.6109059572
  N         5.7435307380        5.9842219211        3.7967241341
  N         5.7522321840       16.7976125100       14.6147927100
  N         5.7523509848       16.7986900469       18.9865699878
  N         5.7467430293        5.9850030394        8.1671178074
  C        11.1580320445       15.7370794669       15.7370792167
  H        11.1573498561       14.9614830216       14.9614830622
  C        11.1520040206        4.9236300012        4.9236326397
  H        11.1517247444        4.1481191646        4.1481220137
  C         0.3357930526       15.7349750831        4.9271710121
  H         0.3365460686       14.9588988941        4.1521675796
  C         0.3357914050        4.9271705511       15.7349765280
  H         0.3365452969        4.1521669522       14.9589004075
  C        11.1558377892        7.0398962219       15.7361644535
  H        11.1557779697        7.8153025237       14.9603841153
  C        11.1558287286       17.8535550521        4.9235484518
  H        11.1558893709       18.6291656244        4.1481204015
  C         0.3318971242        7.0437902933        4.9275402799
  H         0.3322500211        7.8196102723        4.1522947689
  C         0.3384400722       17.8515808612       15.7353267208
  H         0.3387218950       18.6266192383       14.9592899133
  C        11.1558342585       15.7361648663        7.0398968206
  H        11.1557792293       14.9603841810        7.8153032402
  C        11.1558313259        4.9235473259       17.8535545633
  H        11.1558867307        4.1481193106       18.6291651213
  C         0.3384405923       15.7353270292       17.8515800283
  H         0.3387223264       14.9592900428       18.6266183919
  C         0.3318974929        4.9275394706        7.0437906941
  H         0.3322501796        4.1522937257        7.8196107710
  C        11.1532776980        7.0404489352        7.0404510155
  H        11.1536066653        7.8160424762        7.8160445568
  C        11.1597539208       17.8539766431       17.8539757455
  H        11.1603892289       18.6294994019       18.6294983700
  C         0.3344125692        7.0429515909       17.8516744725
  H         0.3343009664        7.8187771123       18.6269089166
  C         0.3344138641       17.8516728064        7.0429516837
  H         0.3343011047       18.6269071774        7.8187773902
  C        15.5070026588       11.3877147591       15.7330111747
  H        14.7314100118       11.3879982002       14.9574014948
  C        15.4992171772        0.5678006688        4.9229262706
  H        14.7236482402        0.5680054812        4.1474049063
  C         4.6900964162       11.3909060422        4.9252168886
  H         3.9145353459       11.3909165978        4.1497035940
  C         4.6969237365        0.5712704593       15.7367208883
  H         3.9217243919        0.5711126286       14.9608205926
  C        15.5029396025       11.3876971776        7.0410018871
  H        14.7272730229       11.3879796398        7.8165404194
  C        15.5042423988        0.5676697858       17.8493483059
  H        14.7286599101        0.5678337731       18.6248677225
  C         4.6934683879       11.3909830323       17.8563031243
  H         3.9178099053       11.3910385985       18.6317056064
  C         4.6897493006        0.5712316010        7.0457231412
  H         3.9142558217        0.5710773931        7.8212990356
  C         6.8100960396       11.3904890444       15.7386139298
  H         7.5853645894       11.3901977805       14.9626798881
  C         6.8064876634        0.5720436000        4.9291355393
  H         7.5823972148        0.5726144413        4.1539134895
  C        17.6194170694       11.3869618760        4.9226469770
  H        18.3945799643       11.3866109770        4.1467274833
  C        17.6191708811        0.5680886998       15.7309952283
  H        18.3938616357        0.5684931999       14.9545754885
  C         6.8065400694       11.3905019521        7.0433017637
  H         7.5816059186       11.3902840004        7.8194289169
  C         6.8125462575        0.5722114536       17.8541221150
  H         7.5880305106        0.5727799820       18.6297304774
  C        17.6236102787       11.3869401739       17.8511189208
  H        18.3989569510       11.3865692220       18.6268550343
  C        17.6145425456        0.5681233502        7.0410310676
  H        18.3895141397        0.5684531479        7.8171873139
  C        15.5070025221       15.7330115110       11.3877038285
  H        14.7314095569       14.9574016209       11.3879977655
  C        15.4992171649        4.9229248021        0.5677978821
  H        14.7236485647        4.1474035072        0.5680066724
  C         4.6969246317       15.7367214327        0.5712707326
  H         3.9217253875       14.9608211893        0.5711114155
  C         4.6900976119        4.9252151076       11.3908986090
  H         3.9145364122        4.1497014806       11.3909160867
  C         6.8100955802       15.7386129877       11.3904822879
  H         7.5853639967       14.9626789599       11.3901975149
  C         6.8064867863        4.9291357437        0.5720438848
  H         7.5823965739        4.1539133894        0.5726132626
  C        17.6191730990       15.7309961877        0.5680838934
  H        18.3938639784       14.9545761443        0.5684924639
  C        17.6194143803        4.9226443254       11.3869529580
  H        18.3945772901        4.1467251767       11.3866110502
  C        15.5029363447        7.0409996146       11.3876879203
  H        14.7272701641        7.8165378262       11.3879796588
  C        15.5042449355       17.8493489825        0.5676659012
  H        14.7286620370       18.6248685711        0.5678343935
  C         4.6897485252        7.0457235905        0.5712327708
  H         3.9142550619        7.8212994869        0.5710781850
  C         4.6934680347       17.8563023684       11.3909755919
  H         3.9178097385       18.6317046958       11.3910373935
  C         6.8065410471        7.0433005170       11.3904949156
  H         7.5816068728        7.8194277466       11.3902839048
  C         6.8125470675       17.8541224958        0.5722116010
  H         7.5880311426       18.6297305781        0.5727784188
  C        17.6145426438        7.0410299286        0.5681204832
  H        18.3895141698        7.8171858175        0.5684546981
  C        17.6236098893       17.8511190310       11.3869290851
  H        18.3989567275       18.6268552842       11.3865679944
 Kr        20.9398193863       10.7492825556       10.7492827143
