     409
 i =      96, E =    -5186.5878138917
  N         2.8701222922        5.2005164646       16.0138429119
  C         1.5523853545        5.4724312421       16.2829458675
  N        13.6874222199        5.1948339086        5.1948337306
  C        12.3702367260        5.4658639128        5.4658613527
  N        19.5514107511       17.5721206172       16.0157181575
  C        20.8694484724       17.2994697758       16.2833566686
  N         8.7351831582       17.5701291693        5.2033191836
  C        10.0525723611       17.2996472291        5.4744270012
  N        19.5508847996        5.2017220137        6.7580454778
  C        20.8690674944        5.4719823852        6.4881468249
  N         8.7352286085        5.2033046413       17.5701409983
  C        10.0524995522        5.4744215788       17.2996515558
  N         2.8709818026       17.5699362557        6.7571606570
  C         1.5529043162       17.2988954171        6.4886243496
  N        13.6907069457       17.5673281392       17.5673302819
  C        12.3728416136       17.2978444803       17.2978335662
  N        15.8412948503        3.0445187203        5.2006099431
  C        16.1091460855        1.7269227800        5.4730473405
  N        15.8450306022       13.8631499240       16.0118635858
  C        16.1164520969       12.5460516243       16.2799722881
  N        15.8385301448       19.7291784462       17.5700076855
  C        16.1072879468       21.0470480065       17.2986148524
  N        15.8315416900        8.9107253379        6.7610382155
  C        16.1022258722       10.2273906110        6.4890917796
  N         6.5842293626       19.7269300005        5.2032662654
  C         6.3160376207       21.0449240959        5.4747274907
  N         6.5821066299        8.9095732497       16.0136085250
  C         6.3129327211       10.2267651791       16.2846104005
  N         6.5864022597        3.0456237209       17.5709599702
  C         6.3181891847        1.7277040672       17.2993036506
  N         6.5836456831       13.8623549580        6.7584952542
  C         6.3140892026       12.5450476667        6.4878324965
  N         5.0307030210       16.0147225643        3.0454317920
  C         5.3023386379       16.2831518855        1.7277022984
  N         5.0287874428        5.2014824815       13.8629120361
  C         5.2987357154        5.4711839888       12.5454176223
  N        17.3934256772       16.0136495047       19.7287888434
  C        17.1229801100       16.2823125205       21.0467681637
  N        17.3920362874        5.2103003118        8.9072658908
  C        17.1224848678        5.4774266680       10.2251895007
  N         5.0276237756        6.7583950355       19.7273772254
  C         5.2995308362        6.4902469641       21.0451113989
  N         5.0273206508       17.5702704574        8.9088849686
  C         5.2974859145       17.3010722757       10.2264655955
  N        17.3927658193        6.7604595093        3.0451210610
  C        17.1227050833        6.4913522493        1.7271062213
  N        17.3969293521       17.5709597085       13.8635817231
  C        17.1296405151       17.2987089571       12.5460654965
  N         5.0273927195        3.0440088404        6.7578088411
  C         5.2994453704        1.7262479360        6.4899614870
  N         5.0275265521       13.8639117663       17.5721076964
  C         5.2975753380       12.5465027705       17.3020174139
  N        17.3924048188       19.7278961159        6.7599111981
  C        17.1220656335       21.0458885348        6.4908670353
  N        17.3980201655        8.9089329577       17.5687590679
  C        17.1303074430       10.2265656877       17.2974349024
  N         5.0283586468       19.7288948486       16.0154867665
  C         5.3010449846       21.0465259705       16.2834178315
  N         5.0278405293        8.9080917196        5.2007948237
  C         5.2983243344       10.2254232398        5.4707871675
  N        17.3956442999        3.0457156121       16.0123781998
  C        17.1242815154        1.7280582457       16.2815763958
  N        17.3984789782       13.8616944502        5.2036278018
  C        17.1257052615       12.5447737830        5.4733452802
  N         2.8694640900       16.0142022639       17.5706404843
  C         1.5514799228       16.2825024779       17.2986030771
  N        13.6887442071       16.0134403373        6.7650648711
  C        12.3716689411       16.2834135240        6.4936432284
  N        19.5524469653       16.0158781855        5.2021740579
  C        20.8705918003       16.2842461892        5.4733658736
  N         8.7333685251       16.0145671443       16.0145669551
  C        10.0511339503       16.2836216909       16.2836115677
  N        19.5530150426        6.7580741590       17.5726645230
  C        20.8709119535        6.4893315796       17.3005090982
  N         8.7347579111        6.7557923637        6.7557896379
  C        10.0518258400        6.4843976774        6.4843940998
  N         2.8692499911        6.7565144819        5.2000850670
  C         1.5512793752        6.4873379227        5.4712801250
  N        13.6886675620        6.7650783410       16.0134275381
  C        12.3717551476        6.4936348845       16.2834256451
  N        15.8391196169        5.2019544821       19.7279239222
  C        16.1077039189        5.4732215823       21.0458387754
  N        15.8471529731       16.0086810812        8.9098459834
  C        16.1174615586       16.2783802748       10.2269371011
  N        15.8405961525       17.5687031713        3.0465314249
  C        16.1085895202       17.2977948200        1.7285004353
  N        15.8361643130        6.7525609721       13.8642131182
  C        16.1049171265        6.4844808774       12.5467347846
  N         6.5829208486        5.2016590435        3.0439549749
  C         6.3154996485        5.4740676680        1.7262162034
  N         6.5823167546       16.0152375302       13.8639723400
  C         6.3130097954       16.2854765443       12.5466315009
  N         6.5843110652       17.5713248227       19.7280048055
  C         6.3170410563       17.2994532324       21.0461694210
  N         6.5835954428        6.7566383743        8.9074200259
  C         6.3140375791        6.4870204636       10.2249649859
  N        19.5530191047       17.5726481407        6.7580674305
  C        20.8709355611       17.3005178349        6.4893252405
  N         8.7347263724       17.5703489671       17.5703547933
  C        10.0521811398       17.2995792530       17.2995734066
  N         2.8692441216        5.2000856012        6.7565138971
  C         1.5512914988        5.4712795440        6.4873391272
  N        13.6908851057        5.2066614008       17.5672954619
  C        12.3729716703        5.4763728712       17.2982160807
  N         2.8694638619       17.5706465755       16.0141966078
  C         1.5514724605       17.2986027527       16.2825034950
  N        13.6908553337       17.5672860008        5.2066737123
  C        12.3730458581       17.2982104927        5.4763778230
  N        19.5524360174        5.2021663578       16.0158675875
  C        20.8705801734        5.4733805898       16.2842365702
  N         8.7316909569        5.1998974020        5.1999014525
  C        10.0497665830        5.4684648978        5.4684654814
  N         6.5843117131       19.7279963939       17.5713212594
  C         6.3170436131       21.0461656250       17.2994540181
  N         6.5835917551        8.9074290462        6.7566422268
  C         6.3140334826       10.2249572800        6.4870212965
  N         6.5829203758        3.0439424077        5.2016512851
  C         6.3154969086        1.7262187908        5.4740664744
  N         6.5823134220       13.8639850621       16.0152388741
  C         6.3130064102       12.5466176536       16.2854750883
  N        15.8405782130        3.0465310112       17.5687198192
  C        16.1085860308        1.7284558256       17.2977992492
  N        15.8361803532       13.8641967751        6.7525650059
  C        16.1048919404       12.5467240295        6.4844345623
  N        15.8391328650       19.7279245635        5.2019759741
  C        16.1076999926       21.0457890669        5.4732332844
  N        15.8471349824        8.9098401129       16.0086753884
  C        16.1174865506       10.2269160067       16.2783333641
  N        17.3924084755        6.7599236497       19.7279531003
  C        17.1220557931        6.4908522135       21.0458404651
  N        17.3980397515       17.5687666676        8.9090052184
  C        17.1302651494       17.2974662123       10.2265053602
  N         5.0273909461        6.7578101987        3.0440200589
  C         5.2994419330        6.4899627432        1.7262417715
  N         5.0275261806       17.5721055157       13.8639150992
  C         5.2975788079       17.3020154999       12.5464918298
  N        17.3956400309       16.0123885367        3.0457696816
  C        17.1242942168       16.2815651273        1.7280158236
  N        17.3984594350        5.2036283802       13.8617664843
  C        17.1257501181        5.4733737763       12.5447091584
  N         5.0283557096       16.0154881160       19.7289137348
  C         5.3010455937       16.2834203813       21.0465121669
  N         5.0278411125        5.2007968401        8.9080888939
  C         5.2983233224        5.4707877965       10.2254177877
  N        17.3934088006       19.7287502508       16.0136630825
  C        17.1229648664       21.0467989112       16.2823131361
  N        17.3920189414        8.9072076073        5.2103127522
  C        17.1224516054       10.2252258985        5.4773996682
  N         5.0306984619        3.0454184599       16.0147244433
  C         5.3023359436        1.7277120450       16.2831532952
  N         5.0287800944       13.8629088282        5.2014710098
  C         5.2987358129       12.5454155766        5.4711814764
  N        17.3927771820        3.0450834195        6.7604736968
  C        17.1227129424        1.7271339140        6.4913611351
  N        17.3969440879       13.8635245379       17.5709749998
  C        17.1296716889       12.5461026911       17.2986830864
  N         5.0276286068       19.7273689324        6.7583975879
  C         5.2995339942       21.0451126264        6.4902495887
  N         5.0273303585        8.9088730389       17.5702621730
  C         5.2974850965       10.2264749077       17.3010719989
  N        19.5508942576        6.7580531382        5.2017124183
  C        20.8690628990        6.4881445209        5.4719836445
  N         8.7336148332        6.7596745452       16.0149760291
  C        10.0514482813        6.4909614781       16.2842782328
  N         2.8709672094        6.7571535126       17.5699354276
  C         1.5528996874        6.4886229750       17.2988874253
  N        13.6895590391        6.7507499926        6.7507459942
  C        12.3719107165        6.4818494616        6.4818434898
  N         2.8701368297       16.0138350723        5.2005041910
  C         1.5523853876       16.2829481761        5.4724184080
  N        13.6888122297       16.0110434541       16.0110383878
  C        12.3716361644       16.2817831886       16.2817672400
  N        19.5514021945       16.0157257997       17.5721102978
  C        20.8694521880       16.2833543335       17.2994708988
  N         8.7336749139       16.0149430650        6.7597035010
  C        10.0513976583       16.2842649201        6.4909713028
  N         6.5864192408       17.5709677624        3.0456224814
  C         6.3181945164       17.2993040027        1.7277042130
  N         6.5836457070        6.7584923546       13.8623525264
  C         6.3140898695        6.4878309371       12.5450477150
  N         6.5842160404        5.2032778204       19.7269322878
  C         6.3160350096        5.4747297253       21.0449184165
  N         6.5821104250       16.0136098932        8.9095636436
  C         6.3129379968       16.2846111598       10.2267777299
  N        15.8385447683       17.5699976548       19.7291562226
  C        16.1072997012       17.2986183531       21.0470938248
  N        15.8315451800        6.7610316903        8.9107309266
  C        16.1022581611        6.4891155926       10.2274098089
  N        15.8412932054        5.2005947318        3.0445045422
  C        16.1091450666        5.4730372956        1.7269589961
  N        15.8450249255       16.0118509872       13.8631409485
  C        16.1164230587       16.2799971995       12.5460836036
 Zn        14.5519680336       14.7184635770       14.7184623719
 Cl        13.3427811588       13.4743279786       13.4743277969
 Zn        14.5520401296        3.9031729677        3.9031709259
 Cl        13.3215804575        2.6698804919        2.6698867165
 Zn         3.7362222303       14.7227020632        3.9061484033
 Cl         2.5082453583       13.4869763676        2.6730044392
 Zn         3.7362222180        3.9061546047       14.7227112070
 Cl         2.5082465751        2.6730041736       13.4869783323
 Zn         7.8765296745        8.0529473809       14.7206160456
 Cl         9.1139851157        9.2847185381       13.4929201032
 Zn         7.8768528893       18.8658671748        3.9090894904
 Cl         9.1150621531       20.0972511924        2.6820347070
 Zn        18.6810406667        8.0517720540        3.9111227261
 Cl        19.9099732022        9.2931945111        2.6839392313
 Zn        18.6855311117       18.8671127316       14.7232504717
 Cl        19.9185248143       20.0941549350       13.4860275499
 Zn         7.8765366914       14.7206160607        8.0529450268
 Cl         9.1139838942       13.4929156062        9.2847161058
 Zn         7.8768463374        3.9090996061       18.8658584331
 Cl         9.1150571708        2.6820381590       20.0972533137
 Zn        18.6855183875       14.7232484098       18.8671097229
 Cl        19.9185262485       13.4860342225       20.0941541605
 Zn        18.6810293702        3.9111243242        8.0517732116
 Cl        19.9099736876        2.6839466495        9.2931960790
 Zn        14.5383808220        8.0495898108        8.0495910393
 Cl        13.2203253218        9.2368821597        9.2368815540
 Zn        14.5506308991       18.8634427224       18.8634439045
 Cl        13.3073550358       20.0903501808       20.0903502828
 Zn         3.7347811890        8.0498789266       18.8647823826
 Cl         2.5004741840        9.2870730620       20.0902141867
 Zn         3.7347832917       18.8647839848        8.0498874692
 Cl         2.5004746868       20.0902099774        9.2870749276
 Zn        14.5514263075       14.7186225839        8.0548481927
 Cl        13.3372641388       13.4715357962        9.2908948820
 Zn        14.5507186309        3.9095472824       18.8613385682
 Cl        13.3056888445        2.6784790109       20.0822536298
 Zn         3.7348566926       14.7237503703       18.8669831043
 Cl         2.5039463782       13.4866127427       20.0958112105
 Zn         3.7345762459        3.9065686263        8.0498325613
 Cl         2.5029023268        2.6774439459        9.2860521376
 Zn         7.8788571264        8.0505266629        8.0505244414
 Cl         9.0962978595        9.2898912900        9.2898864891
 Zn         7.8755939781       18.8652754432       18.8652782963
 Cl         9.1154897092       20.0937209193       20.0937179135
 Zn        18.6852524659        8.0503257634       18.8670067978
 Cl        19.9144742781        9.2866137358       20.0987455725
 Zn        18.6852695788       18.8669918013        8.0503322627
 Cl        19.9144813712       20.0987439995        9.2866255058
 Zn        14.5514150364        8.0548367395       14.7186347243
 Cl        13.3372607548        9.2908893225       13.4715440410
 Zn        14.5507353205       18.8613169970        3.9095675755
 Cl        13.3057002505       20.0822436911        2.6784894103
 Zn         3.7345746147        8.0498355958        3.9065691346
 Cl         2.5028969533        9.2860494395        2.6774430312
 Zn         3.7348543329       18.8669817289       14.7237472578
 Cl         2.5039494818       20.0958128601       13.4866083476
 Zn         7.8753321014       14.7212154248       14.7212134668
 Cl         9.1102250038       13.4901065347       13.4901055426
 Zn         7.8717618699        3.9056550006        3.9056571878
 Cl         9.1069607207        2.6746636475        2.6746632606
 Zn        18.6890079436       14.7220376502        3.9080845867
 Cl        19.9230867322       13.4867372296        2.6804391957
 Zn        18.6889898996        3.9080685984       14.7220440014
 Cl        19.9230787188        2.6804334185       13.4867564704
 Zn         5.7997631378        5.9789898215       16.7901726834
 Zn        16.6163665179       16.7906507668       16.7906575960
 Zn        16.6132398161        5.9787924590        5.9788006031
 Zn         5.7997673650       16.7901705345        5.9789909175
 Zn         5.7992147068        5.9776121566        5.9776110523
 Zn        16.6170889892       16.7894575502        5.9814686921
 Zn         5.7986920541       16.7922462759       16.7922487034
 Zn        16.6170704576        5.9814214424       16.7894898210
  N         3.6168397070        5.9779385133       16.7924838317
  N        14.4346304194        5.9725705128        5.9725721491
  N        18.8050160601       16.7953294707       16.7953612864
  N         7.9877984099       16.7928191770        5.9809343752
  N        18.8044425636        5.9798608771        5.9798929058
  N         7.9878014689        5.9809787453       16.7927756573
  N         3.6168521607       16.7924851965        5.9779462660
  N        14.4360458932       16.7889822253       16.7889893021
  N        16.6176361553        3.7914798797        5.9795672024
  N        16.6197407423       14.6098043844       16.7924500299
  N        16.6165358251       18.9821530968       16.7924738665
  N        16.6116405559        8.1623584269        5.9865879103
  N         5.8047756467       18.9804105412        5.9797948149
  N         5.8043684886        8.1626808350       16.7914137491
  N         5.8074116449        3.7920998233       16.7937696312
  N         5.8060732899       14.6090585088        5.9802695901
  N         5.8074040013       16.7937516238        3.7921016687
  N         5.8060602465        5.9802575516       14.6090602814
  N        16.6165074721       16.7924993702       18.9821550340
  N        16.6116084774        5.9865872020        8.1623478760
  N         5.8047859082        5.9797785705       18.9804123375
  N         5.8043851971       16.7913978342        8.1626845771
  N        16.6176603179        5.9795813753        3.7914801659
  N        16.6197824528       16.7924548563       14.6098000728
  N         5.8038135289        3.7906151129        5.9783354337
  N         5.8046389090       14.6104013288       16.7935285514
  N        16.6164238091       18.9811039300        5.9804684086
  N        16.6216945233        8.1629276782       16.7893463466
  N         5.8047534163       18.9817460059       16.7945944185
  N         5.8053871128        8.1612892418        5.9787072980
  N        16.6189333583        3.7928336475       16.7911864322
  N        16.6184279560       14.6093589915        5.9781021801
  N         3.6157045820       16.7934931918       16.7935076802
  N        14.4361663501       16.7899834780        5.9861622098
  N        18.8063122833       16.7951686551        5.9793271880
  N         7.9873990986       16.7928411649       16.7928499226
  N        18.8062938143        5.9793139483       16.7951791908
  N         7.9865345583        5.9785299830        5.9785316671
  N         3.6155532807        5.9777486658        5.9777516354
  N        14.4361702983        5.9861227114       16.7900196895
  N        16.6163971130        5.9804469780       18.9810955956
  N        16.6217111558       16.7892966992        8.1629154063
  N        16.6189625229       16.7911619045        3.7928285998
  N        16.6183979732        5.9780517463       14.6093404800
  N         5.8038218661        5.9783329816        3.7906145096
  N         5.8046389936       16.7935263399       14.6104043125
  N         5.8047477287       16.7945945240       18.9817461766
  N         5.8053886124        5.9787049623        8.1612905792
  C        11.2105366544       15.7321812085       15.7321630569
  H        11.2082011117       14.9566042246       14.9565849259
  C        11.2088667626        4.9167349773        4.9167358932
  H        11.2069393335        4.1412578434        4.1412626398
  C         0.3909391411       15.7328908551        4.9233484085
  H         0.3900438064       14.9569303412        4.1482112424
  C         0.3909303833        4.9233629029       15.7328781017
  H         0.3900317265        4.1482259110       14.9569172741
  C        11.2106917684        7.0432570845       15.7336146212
  H        11.2084633051        7.8191077501       14.9582790584
  C        11.2135394129       17.8487547961        4.9244259079
  H        11.2151846422       18.6233636169        4.1479717838
  C         0.3902194205        7.0379856980        4.9218114277
  H         0.3907698973        7.8137369441        4.1465004248
  C         0.3904657432       17.8481532135       15.7318863741
  H         0.3905955516       18.6228529194       14.9555021812
  C        11.2107267578       15.7336076313        7.0432573491
  H        11.2084484187       14.9582730915        7.8191028359
  C        11.2135601671        4.9244195746       17.8487593286
  H        11.2151643144        4.1479657629       18.6233654439
  C         0.3904640429       15.7318854336       17.8481524031
  H         0.3905991470       14.9555001635       18.6228524425
  C         0.3902169187        4.9218113972        7.0379879970
  H         0.3907745935        4.1465010202        7.8137409398
  C        11.2127471739        7.0337133715        7.0337062202
  H        11.2173988405        7.8093643644        7.8093552271
  C        11.2132633790       17.8490668454       17.8490589725
  H        11.2147311755       18.6246031365       18.6246017206
  C         0.3924830532        7.0397070563       17.8491888051
  H         0.3938677383        7.8158003450       18.6241688603
  C         0.3924883036       17.8491904846        7.0397019845
  H         0.3938797314       18.6241621467        7.8158031075
  C        15.5684656455       11.3866005319       15.7259080597
  H        14.7957061952       11.3869891796       14.9474661506
  C        15.5586347394        0.5666746295        4.9223218455
  H        14.7840401930        0.5679640719        4.1458328510
  C         4.7482435087       11.3855874883        4.9202174914
  H         3.9728894739       11.3858443085        4.1445063917
  C         4.7522118614        0.5673942006       15.7322299962
  H         3.9771160574        0.5681192036       14.9562136639
  C        15.5487778382       11.3886473972        7.0335118501
  H        14.7664092464       11.3931824631        7.8020461392
  C        15.5571789939        0.5683055631       17.8480078526
  H        14.7810260365        0.5694585528       18.6229425271
  C         4.7472041172       11.3862486590       17.8523285095
  H         3.9715674805       11.3858964747       18.6277728072
  C         4.7495962635        0.5657718588        7.0407937639
  H         3.9738247351        0.5662049739        7.8161013089
  C         6.8635049582       11.3868879623       15.7342043978
  H         7.6387918835       11.3870888627       14.9582920601
  C         6.8670149093        0.5655119949        4.9250210110
  H         7.6432549274        0.5655977149        4.1501216931
  C        17.6769830840       11.3833044934        4.9268907041
  H        18.4557137145       11.3802059322        4.1545146055
  C        17.6734270273        0.5669142906       15.7311227018
  H        18.4487631556        0.5662836380       14.9553228294
  C         6.8643715809       11.3848013915        7.0384343881
  H         7.6391771851       11.3840487941        7.8148484469
  C         6.8685450337        0.5666786395       17.8489721124
  H         7.6444124685        0.5663401372       18.6242188322
  C        17.6795276210       11.3861612828       17.8499329708
  H        18.4529383572       11.3859406575       18.6275990201
  C        17.6713287057        0.5662534208        7.0428710293
  H        18.4453919699        0.5657963028        7.8199362258
  C        15.5684301368       15.7259446471       11.3865766171
  H        14.7956843439       14.9474879230       11.3869951389
  C        15.5586392389        4.9223063266        0.5666656835
  H        14.7840506789        4.1458139388        0.5679781137
  C         4.7522125178       15.7322297553        0.5673958803
  H         3.9771162794       14.9562129626        0.5681207565
  C         4.7482403559        4.9202205221       11.3855901912
  H         3.9728825351        4.1445116203       11.3858415322
  C         6.8635105558       15.7342069973       11.3868858150
  H         7.6387981608       14.9582954112       11.3870913818
  C         6.8670160731        4.9250242661        0.5655100297
  H         7.6432587582        4.1501258740        0.5655995572
  C        17.6734358653       15.7311238722        0.5669343051
  H        18.4487711205       14.9553270242        0.5662730713
  C        17.6770223411        4.9269346045       11.3833127145
  H        18.4557421267        4.1545528020       11.3802044979
  C        15.5488159945        7.0335488772       11.3886220149
  H        14.7664353863        7.8020703338       11.3931845354
  C        15.5571908317       17.8480050127        0.5682980435
  H        14.7810384461       18.6229412038        0.5694747897
  C         4.7495912194        7.0407901894        0.5657697259
  H         3.9738166178        7.8160937186        0.5662063038
  C         4.7472048095       17.8523271240       11.3862568636
  H         3.9715667130       18.6277689049       11.3858941239
  C         6.8643743289        7.0384303787       11.3848025935
  H         7.6391820519        7.8148415051       11.3840496112
  C         6.8685470771       17.8489720123        0.5666729450
  H         7.6444143846       18.6242174248        0.5663422182
  C        17.6713266537        7.0428683795        0.5662727815
  H        18.4453902846        7.8199380784        0.5657884306
  C        17.6794913396       17.8499750324       11.3861756311
  H        18.4529156210       18.6276323434       11.3859400756
 Kr        15.9527278785       11.0764341178       11.0764326901
