     409
 i =      96, E =    -5186.5825952048
  N         2.8120396310        5.2069091254       16.0176318015
  C         1.4942697892        5.4777788059       16.2866606432
  N        13.6247325395        5.2037817484        5.2037825217
  C        12.3077503459        5.4745267828        5.4745275453
  N        19.4956631219       17.5701228349       16.0137484200
  C        20.8136404897       17.2999575112       16.2843113776
  N         8.6735773006       17.5733505684        5.2061118241
  C         9.9907562672       17.3021043128        5.4753645793
  N        19.4892038515        5.2027928852        6.7591577490
  C        20.8070945162        5.4753973146        6.4910240940
  N         8.6735778382        5.2061103282       17.5733522628
  C         9.9907511309        5.4753652056       17.3021040904
  N         2.8108942791       17.5740130020        6.7630344088
  C         1.4934421837       17.3020305866        6.4929684095
  N        13.6324469543       17.5710621472       17.5710614315
  C        12.3152382086       17.3011120183       17.3011110047
  N        15.7746265805        3.0465704325        5.2033898206
  C        16.0441047393        1.7291618917        5.4746141285
  N        15.7818857233       13.8631822571       16.0138085903
  C        16.0514942843       12.5463824636       16.2839337238
  N        15.7826062444       19.7286487507       17.5706031208
  C        16.0503675723       21.0464944489       17.2989273617
  N        15.7770811640        8.9103055677        6.7594975321
  C        16.0470752535       10.2269757293        6.4890984915
  N         6.5228218839       19.7329845365        5.2073532782
  C         6.2526643430       21.0505310419        5.4781312174
  N         6.5241196637        8.9131432432       16.0171576908
  C         6.2547820576       10.2300129838       16.2875502711
  N         6.5225896231        3.0509618498       17.5741511423
  C         6.2545459453        1.7332421834       17.3025983409
  N         6.5226301988       13.8663186620        6.7624782897
  C         6.2524544959       12.5495705287        6.4922411188
  N         4.9678979998       16.0177377523        3.0500583475
  C         5.2397257392       16.2871085760        1.7327664728
  N         4.9675276920        5.2067671166       13.8668334513
  C         5.2372419423        5.4768623713       12.5499739776
  N        17.3368376479       16.0136392212       19.7292336835
  C        17.0650866024       16.2827068476       21.0468678588
  N        17.3312476587        5.2030220132        8.9096966420
  C        17.0617118193        5.4731884526       10.2265974454
  N         4.9679617802        6.7637260683       19.7324119979
  C         5.2376508351        6.4940668947       21.0502242544
  N         4.9693738914       17.5736803051        8.9135657432
  C         5.2399837964       17.3033989024       10.2303042892
  N        17.3297133539        6.7592747636        3.0469509830
  C        17.0590981674        6.4899256424        1.7294830256
  N        17.3368837191       17.5697028720       13.8631452698
  C        17.0666359147       17.2994281085       12.5462895024
  N         4.9641084296        3.0500103414        6.7630274903
  C         5.2354161498        1.7326777823        6.4934509130
  N         4.9712013277       13.8669591740       17.5737784925
  C         5.2408587249       12.5500617425       17.3034415313
  N        17.3332654293       19.7294941240        6.7587752497
  C        17.0614405184       21.0470272622        6.4896231167
  N        17.3346366701        8.9095625834       17.5701808587
  C        17.0655423423       10.2265457170       17.2996114409
  N         4.9718640671       19.7322486252       16.0171771126
  C         5.2420032021       21.0500642597       16.2865596983
  N         4.9657232995        8.9136543683        5.2069077915
  C         5.2363676584       10.2303697881        5.4769277705
  N        17.3332165616        3.0471085926       16.0131234730
  C        17.0627192564        1.7295375197       16.2823980748
  N        17.3334020523       13.8629993264        5.2034812924
  C        17.0627653959       12.5462164214        5.4733586627
  N         2.8148161195       16.0183481008       17.5746273300
  C         1.4972159003       16.2872665436       17.3025399375
  N        13.6283580385       16.0148932876        6.7596936273
  C        12.3114014674       16.2855034640        6.4896992937
  N        19.4931721901       16.0141786978        5.2036584095
  C        20.8107730655       16.2845859142        5.4757793017
  N         8.6768765281       16.0169539750       16.0169536556
  C         9.9940310008       16.2867065746       16.2867058154
  N        19.4915926825        6.7595094679       17.5710795916
  C        20.8098858052        6.4911777786       17.3004654793
  N         8.6711805525        6.7613493511        6.7613498720
  C         9.9879972077        6.4906546825        6.4906551818
  N         2.8081339577        6.7638901782        5.2076839925
  C         1.4905254480        6.4937339142        5.4784497076
  N        13.6283547343        6.7596958308       16.0148914647
  C        12.3114040746        6.4896984252       16.2855047292
  N        15.7785487702        5.2024676247       19.7287017833
  C        16.0462926464        5.4738571401       21.0465873507
  N        15.7801673399       16.0139685604        8.9103099448
  C        16.0506014448       16.2839939145       10.2269670344
  N        15.7787495950       17.5696955154        3.0465313307
  C        16.0481974916       17.2981853933        1.7291515862
  N        15.7787907718        6.7596651975       13.8631564694
  C        16.0479532442        6.4891597830       12.5463417281
  N         6.5183655094        5.2065068875        3.0506280923
  C         6.2499411039        5.4777091416        1.7330713742
  N         6.5257748953       16.0172906149       13.8665245356
  C         6.2556202224       16.2875739826       12.5497078354
  N         6.5272645951       17.5734323847       19.7326929241
  C         6.2573431928       17.3022298770       21.0503604037
  N         6.5210020624        6.7626214013        8.9133405900
  C         6.2516225046        6.4922775475       10.2301384323
  N        19.4915935651       17.5710789564        6.7595079438
  C        20.8098841037       17.3004646526        6.4911761087
  N         8.6775089830       17.5727923705       17.5727912895
  C         9.9945406653       17.3020562689       17.3020550708
  N         2.8081330432        5.2076820280        6.7638917875
  C         1.4905259623        5.4784491660        6.4937343055
  N        13.6286093567        5.2035414139       17.5708557261
  C        12.3115005810        5.4742985827       17.3009046536
  N         2.8148161014       17.5746293110       16.0183461826
  C         1.4972143242       17.3025408610       16.2872656884
  N        13.6286100210       17.5708560298        5.2035409062
  C        12.3115053185       17.3009034591        5.4742995531
  N        19.4931718578        5.2036580913       16.0141784119
  C        20.8107687354        5.4757807535       16.2845869904
  N         8.6697392907        5.2054897381        5.2054906665
  C         9.9870148319        5.4752985889        5.4752992127
  N         6.5272636939       19.7326925036       17.5734314279
  C         6.2573432761       21.0503640599       17.3022305092
  N         6.5210034155        8.9133417865        6.7626226377
  C         6.2516222341       10.2301360116        6.4922774380
  N         6.5183641893        3.0506290130        5.2065089648
  C         6.2499420530        1.7330686630        5.4777091594
  N         6.5257757752       13.8665235250       16.0172891362
  C         6.2556185388       12.5497121486       16.2875746935
  N        15.7787476946        3.0465309694       17.5696960490
  C        16.0481959282        1.7291523742       17.2981856748
  N        15.7787934415       13.8631583247        6.7596636070
  C        16.0479535771       12.5463386369        6.4891600932
  N        15.7785501337       19.7287014254        5.2024677183
  C        16.0462941319       21.0465849174        5.4738579337
  N        15.7801650101        8.9103112809       16.0139672808
  C        16.0506006023       10.2269677953       16.2839934357
  N        17.3332652771        6.7587769594       19.7294957551
  C        17.0614397256        6.4896228776       21.0470260670
  N        17.3346378978       17.5701807481        8.9095615818
  C        17.0655427527       17.2996115965       10.2265458997
  N         4.9641084602        6.7630270972        3.0500113841
  C         5.2354159268        6.4934505866        1.7326767040
  N         4.9712019485       17.5737788850       13.8669579856
  C         5.2408599866       17.3034411879       12.5500644866
  N        17.3332160834       16.0131245238        3.0471087124
  C        17.0627202492       16.2823981128        1.7295374768
  N        17.3334014871        5.2034811326       13.8629997640
  C        17.0627649116        5.4733582022       12.5462148684
  N         4.9718643990       16.0171787323       19.7322474523
  C         5.2420029642       16.2865590482       21.0500671905
  N         4.9657229748        5.2069070877        8.9136548894
  C         5.2363678576        5.4769275995       10.2303682580
  N        17.3368374651       19.7292347711       16.0136385933
  C        17.0650858106       21.0468683280       16.2827067241
  N        17.3312478354        8.9096948357        5.2030232604
  C        17.0617131282       10.2265988892        5.4731881088
  N         4.9678971285        3.0500602818       16.0177393500
  C         5.2397231533        1.7327633546       16.2871079420
  N         4.9675293695       13.8668329656        5.2067679098
  C         5.2372433274       12.5499756700        5.4768632554
  N        17.3297133114        3.0469498395        6.7592763846
  C        17.0590976597        1.7294841572        6.4899262833
  N        17.3368835767       13.8631454927       17.5697023200
  C        17.0666354780       12.5462898713       17.2994272324
  N         4.9679628810       19.7324101848        6.7637254888
  C         5.2376515546       21.0502252356        6.4940667976
  N         4.9693709735        8.9135685619       17.5736827357
  C         5.2399831887       10.2303013774       17.3033984687
  N        19.4892034117        6.7591560567        5.2027945794
  C        20.8070934284        6.4910233009        5.4753981862
  N         8.6740446637        6.7613102596       16.0168331659
  C         9.9910217264        6.4904371784       16.2864620533
  N         2.8108905425        6.7630375352       17.5740157307
  C         1.4934438575        6.4929687445       17.3020303137
  N        13.6254432102        6.7598290029        6.7598292080
  C        12.3083349008        6.4899312867        6.4899317121
  N         2.8120389862       16.0176295726        5.2069068620
  C         1.4942742182       16.2866611767        5.4777790446
  N        13.6312130864       16.0150035437       16.0150028743
  C        12.3144249431       16.2857192683       16.2857183297
  N        19.4956623185       16.0137494810       17.5701215943
  C        20.8136413574       16.2843118311       17.2999569686
  N         8.6740473829       16.0168319400        6.7613108888
  C         9.9910185037       16.2864627877        6.4904358646
  N         6.5225886617       17.5741483985        3.0509638953
  C         6.2545477652       17.3025982130        1.7332381947
  N         6.5226304897        6.7624797647       13.8663176812
  C         6.2524539019        6.4922409347       12.5495730896
  N         6.5228203010        5.2073539463       19.7329842907
  C         6.2526644026        5.4781302722       21.0505341526
  N         6.5241223025       16.0171560572        8.9131447569
  C         6.2547817159       16.2875515984       10.2300084959
  N        15.7826061069       17.5706041240       19.7286490578
  C        16.0503683160       17.2989277497       21.0464942038
  N        15.7770813053        6.7594969578        8.9103058502
  C        16.0470743791        6.4890986106       10.2269784670
  N        15.7746264336        5.2033884896        3.0465705793
  C        16.0441053896        5.4746137208        1.7291643232
  N        15.7818865667       16.0138096388       13.8631828242
  C        16.0514940559       16.2839342125       12.5463817155
 Zn        14.4899795150       14.7202878413       14.7202876962
 Cl        13.2559959339       13.4899470032       13.4899462239
 Zn        14.4859643645        3.9082083914        3.9082085150
 Cl        13.2476927024        2.6800242141        2.6800253260
 Zn         3.6759669109       14.7247800581        3.9113691279
 Cl         2.4428045044       13.4918513541        2.6829498121
 Zn         3.6759652380        3.9113683794       14.7247779646
 Cl         2.4428016749        2.6829485746       13.4918503247
 Zn         7.8165298946        8.0557530237       14.7223131031
 Cl         9.0483817924        9.2867122480       13.4907483737
 Zn         7.8118757771       18.8697456129        3.9124134716
 Cl         9.0489300008       20.0971488916        2.6822098100
 Zn        18.6217540727        8.0514291972        3.9076258513
 Cl        19.8534923160        9.2844890003        2.6777074132
 Zn        18.6279825638       18.8655122772       14.7217547474
 Cl        19.8604045068       20.0924027216       13.4862395371
 Zn         7.8165310748       14.7223155539        8.0557526235
 Cl         9.0483818811       13.4907491422        9.2867111593
 Zn         7.8118737126        3.9124139381       18.8697434302
 Cl         9.0489269412        2.6822113126       20.0971483975
 Zn        18.6279828433       14.7217544990       18.8655118478
 Cl        19.8604049930       13.4862396907       20.0924026132
 Zn        18.6217533613        3.9076262537        8.0514293629
 Cl        19.8534910972        2.6777075866        9.2844892138
 Zn        14.4860539092        8.0541849358        8.0541843825
 Cl        13.2533230124        9.2851491682        9.2851492750
 Zn        14.4941027711       18.8662062577       18.8662062433
 Cl        13.2577478763       20.0952671291       20.0952661000
 Zn         3.6762628560        8.0554653925       18.8690437298
 Cl         2.4452102259        9.2905984747       20.0973666306
 Zn         3.6762625937       18.8690457131        8.0554661736
 Cl         2.4452092453       20.0973686221        9.2905996011
 Zn        14.4880601804       14.7203723170        8.0542713698
 Cl        13.2546688382       13.4898471139        9.2850321768
 Zn        14.4902599716        3.9077171034       18.8657284202
 Cl        13.2527974517        2.6786045937       20.0937607539
 Zn         3.6789225868       14.7249944952       18.8695361168
 Cl         2.4471051108       13.4913484793       20.0984062715
 Zn         3.6732995796        3.9119871495        8.0556106746
 Cl         2.4409404289        2.6840594917        9.2900286005
 Zn         7.8138638828        8.0559190540        8.0559187800
 Cl         9.0468704031        9.2866714939        9.2866717779
 Zn         7.8179097360       18.8684229325       18.8684229659
 Cl         9.0556816796       20.0966660984       20.0966645494
 Zn        18.6241788460        8.0512245840       18.8667538410
 Cl        19.8581755090        9.2848270419       20.0939191657
 Zn        18.6241799802       18.8667523042        8.0512245464
 Cl        19.8581763502       20.0939194921        9.2848266478
 Zn        14.4880595664        8.0542702325       14.7203732510
 Cl        13.2546694884        9.2850313748       13.4898482634
 Zn        14.4902618312       18.8657263669        3.9077183269
 Cl        13.2528002648       20.0937594821        2.6786046897
 Zn         3.6732989594        8.0556114166        3.9119868657
 Cl         2.4409402613        9.2900287283        2.6840584090
 Zn         3.6789237094       18.8695354364       14.7249945649
 Cl         2.4471062479       20.0984059698       13.4913482921
 Zn         7.8192325913       14.7225067109       14.7225076503
 Cl         9.0499687618       13.4907585966       13.4907579876
 Zn         7.8067622523        3.9108305925        3.9108307071
 Cl         9.0426179553        2.6813538388        2.6813546030
 Zn        18.6251621920       14.7215502511        3.9087350390
 Cl        19.8555581672       13.4866320435        2.6792071893
 Zn        18.6251615081        3.9087343042       14.7215513422
 Cl        19.8555565250        2.6792069038       13.4866324498
 Zn         5.7416884221        5.9870713085       16.7965906703
 Zn        16.5595043025       16.7909674312       16.7909666867
 Zn        16.5545463760        5.9812329080        5.9812338063
 Zn         5.7416892407       16.7965906251        5.9870706739
 Zn         5.7391207496        5.9869508033        5.9869513348
 Zn        16.5569838437       16.7910175190        5.9812910653
 Zn         5.7445268521       16.7966645355       16.7966638734
 Zn        16.5569832632        5.9812907765       16.7910191600
  N         3.5576167530        5.9847076847       16.7965694879
  N        14.3712227620        5.9816002696        5.9816008211
  N        18.7493946326       16.7918771823       16.7918748906
  N         7.9275014829       16.7954892766        5.9842083906
  N        18.7429622441        5.9797659494        5.9797680059
  N         7.9275003126        5.9842060207       16.7954930939
  N         3.5576180290       16.7965649676        5.9847036330
  N        14.3779860128       16.7928181639       16.7928175277
  N        16.5526139087        3.7933176644        5.9807812047
  N        16.5594705443       14.6094611480       16.7917801344
  N        16.5607350703       18.9822543030       16.7928886275
  N        16.5540521162        8.1636261177        5.9813454635
  N         5.7453512104       18.9861032717        5.9852606676
  N         5.7463559957        8.1671525465       16.7953388274
  N         5.7442140562        3.7971216851       16.7965808193
  N         5.7451204837       14.6129697953        5.9847306625
  N         5.7442123516       16.7965764965        3.7971208192
  N         5.7451201971        5.9847321850       14.6129714323
  N        16.5607343244       16.7928898100       18.9822531029
  N        16.5540531917        5.9813442436        8.1636271428
  N         5.7453486851        5.9852622982       18.9861049824
  N         5.7463603282       16.7953346706        8.1671519687
  N        16.5526134965        5.9807790003        3.7933179734
  N        16.5594708899       16.7917820795       14.6094608552
  N         5.7405146248        3.7969647355        5.9843105234
  N         5.7485612443       14.6131066435       16.7955245906
  N        16.5569748491       18.9823974743        5.9799404541
  N        16.5570203735        8.1635749755       16.7922017681
  N         5.7492643308       18.9859385909       16.7957908160
  N         5.7429616899        8.1672590951        5.9849467322
  N        16.5563724517        3.7933690876       16.7920448125
  N        16.5564445379       14.6093805059        5.9817623804
  N         3.5609830487       16.7972868763       16.7972847562
  N        14.3746180550       16.7926856921        5.9814350059
  N        18.7461423397       16.7928423305        5.9806698981
  N         7.9308558323       16.7950807478       16.7950797963
  N        18.7461412622        5.9806701479       16.7928425140
  N         7.9241809311        5.9836974688        5.9836985813
  N         3.5542871073        5.9855359296        5.9855389646
  N        14.3746165330        5.9814377055       16.7926836805
  N        16.5569745175        5.9799422889       18.9823974287
  N        16.5570219315       16.7922029162        8.1635744986
  N        16.5563730137       16.7920448470        3.7933679006
  N        16.5564418961        5.9817642521       14.6093808622
  N         5.7405161929        5.9843082333        3.7969652302
  N         5.7485604288       16.7955264601       14.6131063692
  N         5.7492649111       16.7957930577       18.9859368688
  N         5.7429600205        5.9849449865        8.1672605535
  C        11.1537699722       15.7365225850       15.7365217731
  H        11.1531606702       14.9615400728       14.9615394110
  C        11.1470427111        4.9254393604        4.9254401644
  H        11.1464968047        4.1505829646        4.1505838153
  C         0.3336751357       15.7364863876        4.9283874502
  H         0.3364626836       14.9614446213        4.1537553572
  C         0.3336750428        4.9283876631       15.7364863440
  H         0.3364613633        4.1537544458       14.9614437305
  C        11.1511278002        7.0396252053       15.7361959816
  H        11.1510572220        7.8145475986       14.9611765595
  C        11.1511443342       17.8509434053        4.9253507988
  H        11.1511840042       18.6258145012        4.1505174796
  C         0.3291776200        7.0421622641        4.9289010650
  H         0.3310862181        7.8179051980        4.1548285549
  C         0.3358020678       17.8503755423       15.7371659653
  H         0.3377694047       18.6258269970       14.9627911268
  C        11.1511305092       15.7361956541        7.0396249036
  H        11.1510581940       14.9611762084        7.8145472414
  C        11.1511436502        4.9253510404       17.8509434717
  H        11.1511822629        4.1505179110       18.6258143818
  C         0.3358014418       15.7371664877       17.8503748850
  H         0.3377695433       14.9627909924       18.6258271213
  C         0.3291774427        4.9289005292        7.0421626161
  H         0.3310863199        4.1548289429        7.8179045776
  C        11.1484419355        7.0399597595        7.0399600309
  H        11.1488771999        7.8149200227        7.8149200985
  C        11.1552818903       17.8510429861       17.8510416831
  H        11.1559311032       18.6258912928       18.6258898250
  C         0.3312521894        7.0413354943       17.8499872427
  H         0.3323502571        7.8164477706       18.6248416396
  C         0.3312539184       17.8499877522        7.0413349992
  H         0.3323512894       18.6248433479        7.8164482380
  C        15.5011360048       11.3868650096       15.7339815324
  H        14.7260096258       11.3871085285       14.9591446285
  C        15.4953496391        0.5678761631        4.9256123848
  H        14.7198370255        0.5693162928        4.1512015346
  C         4.6869662911       11.3903448906        4.9272116878
  H         3.9118004372       11.3905528587        4.1526327155
  C         4.6917007115        0.5713361401       15.7376570128
  H         3.9162375272        0.5726870728       14.9631917285
  C        15.4977001827       11.3868455416        7.0392224272
  H        14.7229263416       11.3870894546        7.8143952341
  C        15.4997074909        0.5678273929       17.8473714143
  H        14.7245336099        0.5692796779       18.6221223387
  C         4.6909162164       11.3903636325       17.8533105057
  H         3.9161571406       11.3905744670       18.6282954856
  C         4.6874546930        0.5714004345        7.0431269742
  H         3.9124096107        0.5727664519        7.8179846295
  C         6.8048234290       11.3897002374       15.7374271240
  H         7.5793977951       11.3893591621       14.9620529838
  C         6.8001443339        0.5726157986        4.9285266389
  H         7.5744784443        0.5749149051        4.1530740805
  C        17.6116952012       11.3861854733        4.9231958586
  H        18.3862453913       11.3858512124        4.1480027545
  C        17.6120450027        0.5689198615       15.7325380889
  H        18.3861098511        0.5711631104       14.9568265971
  C         6.8019944729       11.3897018701        7.0421518763
  H         7.5769558079       11.3893705247        7.8171286031
  C         6.8049670763        0.5726528197       17.8514179672
  H         7.5795829577        0.5749951529       18.6265582733
  C        17.6158779545       11.3861909758       17.8492043094
  H        18.3908656335       11.3858458943       18.6239589510
  C        17.6087818513        0.5689677983        7.0394723696
  H        18.3833593456        0.5711942374        7.8146728369
  C        15.5011361461       15.7339819843       11.3868651924
  H        14.7260090274       14.9591444094       11.3871081535
  C        15.4953492424        4.9256116465        0.5678759279
  H        14.7198367548        4.1512003669        0.5693171672
  C         4.6917020652       15.7376570172        0.5713346392
  H         3.9162394607       14.9631920149        0.5726869486
  C         4.6869657219        4.9272111772       11.3903456988
  H         3.9117998770        4.1526322720       11.3905528527
  C         6.8048242595       15.7374272947       11.3897017114
  H         7.5793979463       14.9620536407       11.3893589605
  C         6.8001435628        4.9285264193        0.5726143507
  H         7.5744773949        4.1530742879        0.5749146975
  C        17.6120460065       15.7325380598        0.5689187614
  H        18.3861112278       14.9568261254        0.5711619651
  C        17.6116944021        4.9231957597       11.3861869217
  H        18.3862445094        4.1480027606       11.3858519348
  C        15.4976998535        7.0392223307       11.3868452794
  H        14.7229267031        7.8143949413       11.3870897659
  C        15.4997087668       17.8473715832        0.5678274911
  H        14.7245353556       18.6221222055        0.5692801390
  C         4.6874545195        7.0431267148        0.5714010331
  H         3.9124098837        7.8179843655        0.5727676262
  C         4.6909168727       17.8533109250       11.3903627460
  H         3.9161570298       18.6282967352       11.3905739264
  C         6.8019941055        7.0421517676       11.3897016240
  H         7.5769556602        7.8171287882       11.3893709584
  C         6.8049684949       17.8514178060        0.5726527580
  H         7.5795854183       18.6265586571        0.5749944072
  C        17.6087818501        7.0394717292        0.5689685381
  H        18.3833597038        7.8146717845        0.5711945434
  C        17.6158782680       17.8492048590       11.3861908015
  H        18.3908658018       18.6239591163       11.3858456365
 Kr        21.3439043568       10.7951161188       10.7951161465
