     409
 i =      96, E =    -5186.5749426839
  N         2.9096088184        5.2036528142       16.0005381954
  C         1.5917370567        5.4735802431       16.2712138501
  N        13.7145441371        5.1339778045        5.1339777475
  C        12.3985935823        5.4096846303        5.4096828519
  N        19.5961745805       17.5663715468       16.0102980176
  C        20.9141979477       17.2939747838       16.2778716321
  N         8.7606644546       17.5903067469        5.1772668105
  C        10.0819894677       17.3278482543        5.4342906826
  N        19.5883461745        5.2010033435        6.7575734876
  C        20.9063853835        5.4737959990        6.4899505842
  N         8.7606639464        5.1772669485       17.5903075795
  C        10.0819893771        5.4342912198       17.3278504790
  N         2.9102006411       17.5548321234        6.7612956682
  C         1.5922028754       17.2867684611        6.4901160979
  N        13.7229771241       17.6164296781       17.6164312864
  C        12.4072459977       17.3410540968       17.3410542768
  N        15.8987880902        3.0348771809        5.1828534333
  C        16.1640981289        1.7196541252        5.4616476501
  N        15.8734329127       13.8616887994       16.0142859097
  C        16.1454810252       12.5423029372       16.2786713013
  N        15.9010312477       19.7273950584       17.5755116699
  C        16.1655348415       21.0431381665       17.2965900505
  N        15.8595908952        8.8964827793        6.7452420926
  C        16.1307171380       10.2166234994        6.4848538954
  N         6.5976280129       19.7255685428        5.1952902713
  C         6.3283604365       21.0417510367        5.4696118978
  N         6.6452045751        8.9021722702       16.0118824481
  C         6.3745606460       10.2209637090       16.2790372960
  N         6.6033618166        3.0392157779       17.5748097349
  C         6.3366066280        1.7224167547       17.3000562650
  N         6.6397821184       13.8596213867        6.7482266956
  C         6.3676540661       12.5411235435        6.4828779696
  N         5.0608543611       16.0064963904        3.0409490642
  C         5.3288474139       16.2760836474        1.7227224446
  N         5.0744523044        5.2017446308       13.8573959046
  C         5.3455604717        5.4729493939       12.5406586350
  N        17.4419847549       16.0048698658       19.7239754604
  C        17.1718635299       16.2710197288       21.0421190881
  N        17.4252346083        5.2002536381        8.9040203746
  C        17.1535926923        5.4757450028       10.2203776183
  N         5.0550735622        6.7634538471       19.7208289185
  C         5.3206638185        6.4938130988       21.0399022382
  N         5.0772140748       17.5554232247        8.9054997701
  C         5.3510767920       17.2876000201       10.2221613912
  N        17.4378777239        6.7554103115        3.0394936711
  C        17.1692832570        6.4881363411        1.7213083812
  N        17.4376233601       17.5604643118       13.8595486333
  C        17.1677615833       17.2884816163       12.5422789378
  N         5.0505846276        3.0399313186        6.7610060081
  C         5.3187154241        1.7214124560        6.4924263097
  N         5.0785993054       13.8583601694       17.5591177735
  C         5.3512614574       12.5416116842       17.2895997717
  N        17.4399164695       19.7243022963        6.7537600565
  C        17.1698971390       21.0420899591        6.4868550355
  N        17.4379832203        8.9047472385       17.5686338339
  C        17.1680953547       10.2211859063       17.2926580309
  N         5.0633450550       19.7228392167       16.0051545006
  C         5.3298398918       21.0415298885       16.2751638862
  N         5.0725393953        8.9047834586        5.2029484128
  C         5.3451426656       10.2211768731        5.4737036494
  N        17.4393562378        3.0401814072       16.0023797020
  C        17.1709152023        1.7217736167       16.2694495109
  N        17.4242931158       13.8594967916        5.2098160469
  C        17.1532411006       12.5419824214        5.4806442349
  N         2.9136208745       16.0036423348       17.5593902749
  C         1.5957202022       16.2746139322       17.2906371895
  N        13.7340029006       16.0613573065        6.6922186626
  C        12.4136450644       16.3237769233        6.4295393039
  N        19.5915434979       16.0074250443        5.2001007346
  C        20.9098950741       16.2747040633        5.4716262675
  N         8.7846755957       16.0299669436       16.0299659555
  C        10.0981720451       16.3100890958       16.3100872694
  N        19.5927766933        6.7544730507       17.5657578974
  C        20.9105364859        6.4868086613       17.2917976221
  N         8.7775982568        6.7238205346        6.7238174209
  C        10.0904772372        6.4427114704        6.4427075112
  N         2.9061868789        6.7631396526        5.2068220827
  C         1.5883151727        6.4927780525        5.4766990260
  N        13.7340021537        6.6922190684       16.0613595454
  C        12.4136454422        6.4295401192       16.3237794812
  N        15.8996011178        5.1821247075       19.7271082125
  C        16.1641937373        5.4606941262       21.0428020860
  N        15.8744381926       16.0221306449        8.8980326165
  C        16.1460086851       16.2827970429       10.2181155914
  N        15.8994117369       17.5734385640        3.0356982538
  C        16.1649734891       17.2952075455        1.7202400104
  N        15.8591664071        6.7560265291       13.8607297985
  C        16.1306714593        6.4902372850       12.5416177310
  N         6.5924058655        5.1921003205        3.0370315267
  C         6.3260211300        5.4680066512        1.7206916572
  N         6.6452751420       16.0139206252       13.8609654779
  C         6.3741357296       16.2804562145       12.5425439934
  N         6.6063294126       17.5728667183       19.7261106334
  C         6.3378849994       17.2989859002       21.0427788995
  N         6.6396664357        6.7472877738        8.9002777811
  C         6.3680325499        6.4828857932       10.2193983423
  N        19.5927791637       17.5657521215        6.7544743472
  C        20.9105379212       17.2917945461        6.4868092776
  N         8.7643933747       17.5859538521       17.5859560313
  C        10.0856291583       17.3256369873       17.3256375965
  N         2.9061869852        5.2068243815        6.7631412263
  C         1.5883148871        5.4767012445        6.4927786309
  N        13.7194526829        5.1426768269       17.6193773878
  C        12.4036157562        5.4166676347       17.3425569100
  N         2.9136192355       17.5593905559       16.0036458124
  C         1.5957205646       17.2906402631       16.2746136589
  N        13.7194531211       17.6193738776        5.1426752938
  C        12.4036153461       17.3425540992        5.4166660306
  N        19.5915421218        5.2001059149       16.0074233832
  C        20.9098937124        5.4716303202       16.2747020365
  N         8.7551652470        5.1687398940        5.1687414614
  C        10.0767604337        5.4273839733        5.4273831579
  N         6.6063316049       19.7261105341       17.5728656485
  C         6.3378841827       21.0427788321       17.2989860116
  N         6.6396637254        8.9002771143        6.7472909847
  C         6.3680306967       10.2193982498        6.4828883783
  N         6.5924035460        3.0370315821        5.1920989760
  C         6.3260208112        1.7206918487        5.4680071219
  N         6.6452747245       13.8609645191       16.0139228909
  C         6.3741371162       12.5425444947       16.2804579184
  N        15.8994077469        3.0356995176       17.5734401126
  C        16.1649676872        1.7202411355       17.2952049111
  N        15.8591677449       13.8607302934        6.7560269996
  C        16.1306704603       12.5416173296        6.4902352952
  N        15.8996001233       19.7271057247        5.1821253221
  C        16.1641927686       21.0428003086        5.4606956772
  N        15.8744374691        8.8980335084       16.0221320421
  C        16.1460043003       10.2181161685       16.2827988349
  N        17.4399118057        6.7537654532       19.7243050493
  C        17.1698935379        6.4868573358       21.0420920673
  N        17.4379847162       17.5686311160        8.9047478864
  C        17.1681002780       17.2926549751       10.2211849485
  N         5.0505864824        6.7610065164        3.0399312476
  C         5.3187151282        6.4924254165        1.7214125917
  N         5.0785998357       17.5591160466       13.8583590126
  C         5.3512599703       17.2895986313       12.5416111363
  N        17.4393574141       16.0023760596        3.0401801056
  C        17.1709193873       16.2694506379        1.7217716655
  N        17.4242887856        5.2098119228       13.8594969153
  C        17.1532397152        5.4806437997       12.5419825099
  N         5.0633438867       16.0051545646       19.7228377751
  C         5.3298414806       16.2751629916       21.0415294211
  N         5.0725392072        5.2029480630        8.9047837686
  C         5.3451428391        5.4737031780       10.2211772650
  N        17.4419820555       19.7239767949       16.0048662871
  C        17.1718573003       21.0421205878       16.2710160366
  N        17.4252355205        8.9040211121        5.2002527716
  C        17.1535919500       10.2203778637        5.4757433553
  N         5.0608486207        3.0409500670       16.0064990115
  C         5.3288425362        1.7227227077       16.2760865780
  N         5.0744527788       13.8573960488        5.2017443872
  C         5.3455608369       12.5406587483        5.4729494682
  N        17.4378817412        3.0394917239        6.7554102389
  C        17.1692861015        1.7213062875        6.4881362794
  N        17.4376198809       13.8595479633       17.5604616052
  C        17.1677567807       12.5422799786       17.2884833731
  N         5.0550762788       19.7208282072        6.7634546489
  C         5.3206666131       21.0399020345        6.4938146937
  N         5.0772151736        8.9055007641       17.5554228967
  C         5.3510778777       10.2221616806       17.2876014463
  N        19.5883456321        6.7575724460        5.2010006971
  C        20.9063853238        6.4899497837        5.4737940377
  N         8.7814936040        6.7269350065       16.0288268634
  C        10.0948129229        6.4459835766       16.3086790772
  N         2.9101980326        6.7612938718       17.5548329677
  C         1.5922017290        6.4901158190       17.2867698161
  N        13.7291846908        6.6876127150        6.6876100226
  C        12.4088750904        6.4255227343        6.4255186334
  N         2.9096105154       16.0005437093        5.2036488308
  C         1.5917386265       16.2712167890        5.4735756899
  N        13.7377970991       16.0628084482       16.0628056092
  C        12.4173013928       16.3252537046       16.3252510230
  N        19.5961761088       16.0103007459       17.5663631749
  C        20.9141977578       16.2778725063       17.2939704530
  N         8.7814943848       16.0288262335        6.7269345708
  C        10.0948132446       16.3086771838        6.4459828228
  N         6.6033652784       17.5748086849        3.0392150274
  C         6.3366101250       17.3000542268        1.7224161747
  N         6.6397835148        6.7482258982       13.8596214002
  C         6.3676550043        6.4828765053       12.5411234497
  N         6.5976263290        5.1952897391       19.7255679392
  C         6.3283582493        5.4696107172       21.0417504276
  N         6.6452025385       16.0118831922        8.9021726294
  C         6.3745592288       16.2790358311       10.2209631894
  N        15.9010353647       17.5755173758       19.7273929316
  C        16.1655420805       17.2965953365       21.0431367401
  N        15.8595938364        6.7452464787        8.8964819333
  C        16.1307203285        6.4848582042       10.2166232748
  N        15.8987900863        5.1828473442        3.0348791972
  C        16.1640994962        5.4616434430        1.7196554490
  N        15.8734347780       16.0142898239       13.8616870740
  C        16.1454846152       16.2786704007       12.5423018093
 Zn        14.5771489404       14.7704761580       14.7704758164
 Cl        13.1509737952       13.6557116045       13.6557191246
 Zn        14.6106201839        3.8588489513        3.8588520468
 Cl        13.4330611486        2.6013661238        2.6013718304
 Zn         3.7785461573       14.7129516842        3.9082445569
 Cl         2.5391718330       13.4761527451        2.6865320525
 Zn         3.7785445824        3.9082456422       14.7129523483
 Cl         2.5391709410        2.6865328240       13.4761525450
 Zn         7.9427828872        8.0270439027       14.7264907340
 Cl         9.1588111211        9.2668372542       13.4861378988
 Zn         7.8884565835       18.8783636805        3.8946153540
 Cl         9.1106701055       20.1184539233        2.6593103512
 Zn        18.7228013115        8.0501394979        3.9062353985
 Cl        19.9466240677        9.2970730801        2.6806904974
 Zn        18.7295772677       18.8552722607       14.7160787634
 Cl        19.9556903391       20.0822760697       13.4714471699
 Zn         7.9427831943       14.7264893522        8.0270445517
 Cl         9.1588106567       13.4861354220        9.2668366169
 Zn         7.8884553675        3.8946156359       18.8783642911
 Cl         9.1106647715        2.6593102642       20.1184581674
 Zn        18.7295782130       14.7160784514       18.8552680716
 Cl        19.9556916484       13.4714516978       20.0822740910
 Zn        18.7228019123        3.9062355092        8.0501399403
 Cl        19.9466242647        2.6806937660        9.2970770836
 Zn        14.5611617942        7.9800790431        7.9800781982
 Cl        13.1236936028        9.0872976576        9.0872944301
 Zn        14.6118965365       18.8908181970       18.8908192957
 Cl        13.4319221598       20.1479572013       20.1479578862
 Zn         3.7765784758        8.0567787374       18.8417878388
 Cl         2.5357605184        9.2937702528       20.0628333739
 Zn         3.7765794338       18.8417865344        8.0567781897
 Cl         2.5357618153       20.0628335431        9.2937698865
 Zn        14.5691079084       14.7799948520        7.9989373984
 Cl        13.1363967918       13.7436892271        9.1782995374
 Zn        14.6104615392        3.8640914250       18.8908183160
 Cl        13.4315931883        2.6059111561       20.1474539837
 Zn         3.7812558524       14.7129786618       18.8490721056
 Cl         2.5424106826       13.4769299434       20.0728315327
 Zn         3.7725086999        3.9125497680        8.0560475619
 Cl         2.5307890724        2.6953113886        9.2948065673
 Zn         7.9414517480        8.0236074711        8.0236078177
 Cl         9.1603331188        9.2628982570        9.2628967465
 Zn         7.8939460601       18.8741047673       18.8741040013
 Cl         9.1221008761       20.1088278518       20.1088245294
 Zn        18.7288688050        8.0472669402       18.8625904160
 Cl        19.9586430909        9.2830186391       20.0937240863
 Zn        18.7288713097       18.8625900897        8.0472655728
 Cl        19.9586442563       20.0937260907        9.2830151951
 Zn        14.5691064924        7.9989365234       14.7799942601
 Cl        13.1363942904        9.1782997153       13.7436918670
 Zn        14.6104617795       18.8908171037        3.8640911663
 Cl        13.4315947166       20.1474542013        2.6059114093
 Zn         3.7725100165        8.0560475119        3.9125491134
 Cl         2.5307870814        9.2948050691        2.6953123012
 Zn         3.7812568040       18.8490749982       14.7129766427
 Cl         2.5424124075       20.0728333517       13.4769282818
 Zn         7.9442465567       14.7276952267       14.7276939960
 Cl         9.1563191282       13.4861371512       13.4861359443
 Zn         7.8774678181        3.8876795508        3.8876799622
 Cl         9.0927870669        2.6462594266        2.6462624844
 Zn        18.7228183543       14.7133274606        3.9126531337
 Cl        19.9436182640       13.4572444908        2.6923545452
 Zn        18.7228173247        3.9126535817       14.7133276529
 Cl        19.9436158819        2.6923523612       13.4572468066
 Zn         5.8430812438        5.9724476173       16.7843982263
 Zn        16.6629844266       16.8079158428       16.8079138197
 Zn        16.6582806453        5.9534952588        5.9534953083
 Zn         5.8430823451       16.7843981447        5.9724466530
 Zn         5.8384959390        5.9695854250        5.9695854800
 Zn        16.6604814091       16.8111991574        5.9574122819
 Zn         5.8465170679       16.7852315586       16.7852311538
 Zn        16.6604801445        5.9574125544       16.8112007388
  N         3.6562092198        5.9828760057       16.7770827236
  N        14.4683500111        5.9088589158        5.9088584176
  N        18.8496809165       16.7894954481       16.7894953928
  N         8.0244213138       16.8052826486        5.9581325012
  N        18.8420788868        5.9778465508        5.9778467331
  N         8.0244218804        5.9581314520       16.8052841415
  N         3.6562102163       16.7770825870        5.9828724686
  N        14.4768461657       16.8416472017       16.8416471607
  N        16.6692953417        3.7832484410        5.9652978783
  N        16.6548764752       14.6076262715       16.7902510263
  N        16.6731788308       18.9797328866       16.7940608074
  N        16.6424598176        8.1534066423        5.9677793048
  N         5.8276046795       18.9763510981        5.9779131941
  N         5.8597952191        8.1574779636       16.7839525439
  N         5.8319594251        3.7868318200       16.7920033705
  N         5.8574116826       14.6047429550        5.9734415134
  N         5.8319622096       16.7919998605        3.7868316411
  N         5.8574114182        5.9734408308       14.6047430674
  N        16.6731829765       16.7940621756       18.9797310892
  N        16.6424618396        5.9677810974        8.1534069964
  N         5.8276024058        5.9779134494       18.9763510826
  N         5.8597972130       16.7839503123        8.1574775547
  N        16.6692953108        5.9652957685        3.7832498941
  N        16.6548738129       16.7902526188       14.6076247339
  N         5.8212777535        3.7851976437        5.9744386186
  N         5.8613014811       14.6058749426       16.7871720313
  N        16.6714080350       18.9799368541        5.9643766820
  N        16.6553653423        8.1545870527       16.8000754070
  N         5.8355879709       18.9775937000       16.7901523739
  N         5.8555836200        8.1561246531        5.9732965009
  N        16.6702289955        3.7841943102       16.7915261782
  N        16.6419577530       14.6072218153        5.9805178081
  N         3.6600060844       16.7808980514       16.7808930830
  N        14.4732015062       16.8429498739        5.9162120258
  N        18.8457504435       16.7882594002        5.9762914562
  N         8.0280116737       16.8029815292       16.8029827265
  N        18.8457492783        5.9762910931       16.7882595445
  N         8.0196443688        5.9518181825        5.9518184304
  N         3.6523019985        5.9850544817        5.9850536520
  N        14.4732015464        5.9162134019       16.8429520086
  N        16.6714050419        5.9643790902       18.9799385198
  N        16.6553679225       16.8000779492        8.1545856323
  N        16.6702270195       16.7915241288        3.7841931981
  N        16.6419544854        5.9805147656       14.6072219475
  N         5.8212811650        5.9744401885        3.7851971641
  N         5.8612998930       16.7871731586       14.6058742523
  N         5.8355867154       16.7901555749       18.9775935847
  N         5.8555848494        5.9732945580        8.1561243587
  C        11.2640189860       15.7676255118       15.7676209916
  H        11.2801020338       14.9922496946       14.9922423361
  C        11.2294410366        4.8680213442        4.8680210173
  H        11.2143201522        4.0927701074        4.0927716083
  C         0.4304797649       15.7222225833        4.9230316426
  H         0.4310476970       14.9458211464        4.1483977556
  C         0.4304764745        4.9230392202       15.7222167834
  H         0.4310464812        4.1484101636       14.9458105400
  C        11.2607096711        6.9856377161       15.7640680848
  H        11.2768373515        7.7606105119       14.9883579291
  C        11.2352573919       17.8873304466        4.8765588112
  H        11.2214974312       18.6653248612        4.1039703356
  C         0.4273538847        7.0418338524        4.9254986073
  H         0.4282491547        7.8176696387        4.1502186919
  C         0.4349746906       17.8421500295       15.7256010083
  H         0.4357419743       18.6170155428       14.9493784417
  C        11.2607098677       15.7640658943        6.9856371729
  H        11.2768379302       14.9883564143        7.7606102653
  C        11.2352562423        4.8765600176       17.8873331201
  H        11.2214976805        4.1039713326       18.6653275605
  C         0.4349716114       15.7255998986       17.8421445645
  H         0.4357438308       14.9493751098       18.6170079077
  C         0.4273537460        4.9255023791        7.0418363953
  H         0.4282498132        4.1502251180        7.8176746838
  C        11.2567618408        6.9841717442        6.9841652618
  H        11.2737783492        7.7595481697        7.7595386203
  C        11.2392620577       17.8838436370       17.8838449040
  H        11.2263652830       18.6591640652       18.6591664420
  C         0.4317700362        7.0387725696       17.8393313974
  H         0.4329456615        7.8143895756       18.6148348674
  C         0.4317708613       17.8393266955        7.0387756970
  H         0.4329477853       18.6148268137        7.8143960627
  C        15.5918981753       11.3791562856       15.7349468660
  H        14.8037624492       11.3757315460       14.9730275491
  C        15.6176301614        0.5613899602        4.9054192964
  H        14.8509617149        0.5619142300        4.1206605166
  C         4.7908991740       11.3808901167        4.9269222892
  H         4.0102442833       11.3808401838        4.1565102722
  C         4.7834843398        0.5620960187       15.7204983184
  H         4.0137558384        0.5623662056       14.9392424085
  C        15.5772030145       11.3778303205        7.0329652865
  H        14.7910583592       11.3740592539        7.7965086976
  C        15.6182944917        0.5618379006       17.8510741314
  H        14.8508311758        0.5623713370       18.6350271584
  C         4.7966536475       11.3815223392       17.8352297358
  H         4.0153941731       11.3809539172       18.6051593374
  C         4.7740991403        0.5605262804        7.0485612943
  H         4.0047642765        0.5606398032        7.8301612558
  C         6.9280655106       11.3821171246       15.7326475343
  H         7.7071866066       11.3830409245       14.9606790884
  C         6.8738644145        0.5614114212        4.9143710842
  H         7.6437120004        0.5620377597        4.1330766489
  C        17.7066759608       11.3823477838        4.9318577272
  H        18.4851319430       11.3843486904        4.1589065471
  C        17.7161063074        0.5618419254       15.7130982060
  H        18.4848911329        0.5614465120       14.9309940862
  C         6.9209000724       11.3802879273        7.0308615522
  H         7.6998176113       11.3807334577        7.8031466394
  C         6.8841270173        0.5626690777       17.8536366322
  H         7.6546010722        0.5630075659       18.6342822094
  C        17.7211673098       11.3827411399       17.8373328461
  H        18.4987217734       11.3845832018       18.6110398281
  C        17.7141347061        0.5616061157        7.0449361711
  H        18.4827530138        0.5612027292        7.8272953095
  C        15.5919026175       15.7349449893       11.3791575347
  H        14.8037670798       14.9730259325       11.3757295756
  C        15.6176343336        4.9054133598        0.5613914494
  H        14.8509704261        4.1206505988        0.5619153918
  C         4.7834881312       15.7204954652        0.5620961665
  H         4.0137599208       14.9392390426        0.5623654401
  C         4.7908977562        4.9269230786       11.3808905668
  H         4.0102412194        4.1565130373       11.3808401461
  C         6.9280638773       15.7326454645       11.3821161959
  H         7.7071849308       14.9606767073       11.3830420083
  C         6.8738632170        4.9143698109        0.5614107288
  H         7.6437107505        4.1330747308        0.5620357425
  C        17.7161116995       15.7131012266        0.5618386570
  H        18.4848962535       14.9309972589        0.5614455129
  C        17.7066746950        4.9318570172       11.3823474496
  H        18.4851290331        4.1589037786       11.3843487883
  C        15.5772073445        7.0329700786       11.3778302363
  H        14.7910649624        7.7965161536       11.3740589073
  C        15.6183029304       17.8510801905        0.5618375030
  H        14.8508414557       18.6350353970        0.5623692424
  C         4.7740966534        7.0485588670        0.5605266366
  H         4.0047604444        7.8301574568        0.5606412258
  C         4.7966522944       17.8352282781       11.3815234230
  H         4.0153929696       18.6051580646       11.3809519637
  C         6.9209023025        7.0308585742       11.3802880588
  H         7.6998208850        7.8031424201       11.3807336533
  C         6.8841288567       17.8536357614        0.5626674820
  H         7.6546017976       18.6342817731        0.5630073865
  C        17.7141295090        7.0449394312        0.5616093618
  H        18.4827452698        7.8273011141        0.5612060350
  C        17.7211740679       17.8373286502       11.3827394086
  H        18.4987302413       18.6110338516       11.3845839988
 Kr        12.5268354946       11.3662180000       11.3662189637
