     409
 i =      96, E =    -5186.5852767436
  N         2.8458257426        5.2044366774       16.0169367957
  C         1.5277885682        5.4763700411       16.2858516394
  N        13.6642594328        5.2088804386        5.2088815485
  C        12.3464643797        5.4783498167        5.4783511400
  N        19.5279097671       17.5760502366       16.0195941829
  C        20.8459016025       17.3029868568       16.2868830887
  N         8.7071226933       17.5756790239        5.2069920061
  C        10.0246256896       17.3041688702        5.4760084562
  N        19.5288756183        5.2059045305        6.7622562862
  C        20.8467898764        5.4768415466        6.4929466574
  N         8.7071221398        5.2069914520       17.5756798226
  C        10.0246276750        5.4760101634       17.3041669050
  N         2.8462750865       17.5733488954        6.7606955845
  C         1.5283056924       17.3020299697        6.4923772737
  N        13.6625390547       17.5746579232       17.5746576440
  C        12.3447517500       17.3046747844       17.3046744151
  N        15.8136511351        3.0510590354        5.2068573692
  C        16.0814888340        1.7329625775        5.4778790414
  N        15.8149710684       13.8678890794       16.0172865438
  C        16.0853086412       12.5504852215       16.2867798154
  N        15.8128929220       19.7328954480       17.5739927178
  C        16.0807773537       21.0508759163       17.3017310802
  N        15.8193075300        8.9138037700        6.7662125842
  C        16.0902855684       10.2310060388        6.4978834354
  N         6.5555692136       19.7327966383        5.2066953805
  C         6.2872538951       21.0506371524        5.4776401636
  N         6.5552060524        8.9130155601       16.0179735393
  C         6.2853160797       10.2301969437       16.2879298831
  N         6.5584749983        3.0493450548       17.5765676536
  C         6.2901924934        1.7315798840       17.3047879862
  N         6.5555396083       13.8668979207        6.7624833961
  C         6.2855880505       12.5497314723        6.4928182668
  N         5.0049428712       16.0189324920        3.0496372838
  C         5.2754695265       16.2876310907        1.7317925347
  N         5.0024753656        5.2048106302       13.8673384137
  C         5.2710759035        5.4754974486       12.5498353848
  N        17.3681181773       16.0171777585       19.7327853220
  C        17.0963894174       16.2852599792       21.0506633130
  N        17.3731774328        5.2085053939        8.9138174029
  C        17.1047640401        5.4804029390       10.2311898346
  N         4.9996310399        6.7621514390       19.7332658151
  C         5.2709714880        6.4933290635       21.0509698665
  N         5.0008669778       17.5749955693        8.9126252814
  C         5.2700946278       17.3046210982       10.2300701661
  N        17.3692885210        6.7627617797        3.0500170097
  C        17.0973367655        6.4939648021        1.7322858511
  N        17.3705153605       17.5732985940       13.8680832719
  C        17.1010151728       17.3030327646       12.5506003521
  N         5.0026025198        3.0496988715        6.7622045208
  C         5.2726497615        1.7319330876        6.4932457097
  N         5.0020457222       13.8674405391       17.5756779105
  C         5.2706343941       12.5498943960       17.3049744573
  N        17.3676364389       19.7331759972        6.7619296808
  C        17.0963409597       21.0510375270        6.4935217382
  N        17.3698018047        8.9131832004       17.5751569543
  C        17.1006313781       10.2305942262       17.3040276891
  N         5.0025994460       19.7330713744       16.0189776233
  C         5.2740961014       21.0508594618       16.2875387719
  N         5.0017333540        8.9127418714        5.2056530354
  C         5.2707306176       10.2301730308        5.4759534178
  N        17.3695343067        3.0499707421       16.0172360571
  C        17.0972628622        1.7321835956       16.2852505914
  N        17.3724126415       13.8684168076        5.2096221272
  C        17.1042967714       12.5509561862        5.4809813458
  N         2.8460819075       16.0174027634       17.5738292905
  C         1.5280084929       16.2856222488       17.3017496517
  N        13.6624164219       16.0162908017        6.7607290286
  C        12.3449463832       16.2862958644        6.4906856288
  N        19.5276275108       16.0198174874        5.2060761470
  C        20.8457447285       16.2876370643        5.4774046235
  N         8.7065726613       16.0186021417       16.0186019206
  C        10.0240404945       16.2886257734       16.2886253270
  N        19.5287266225        6.7619973221       17.5766728234
  C        20.8465126152        6.4932557631       17.3039946272
  N         8.7077575811        6.7624291684        6.7624297880
  C        10.0252716501        6.4929707931        6.4929706238
  N         2.8464616383        6.7612738528        5.2050336157
  C         1.5285233803        6.4924215052        5.4763373599
  N        13.6624163189        6.7607293089       16.0162915840
  C        12.3449434499        6.4906861289       16.2862951642
  N        15.8117889180        5.2058068085       19.7333537001
  C        16.0804294540        5.4773514346       21.0513114460
  N        15.8137808935       16.0192240861        8.9131042658
  C        16.0847976001       16.2878311387       10.2304403317
  N        15.8145374179       17.5739699494        3.0504626353
  C        16.0817327799       17.3016885560        1.7324084483
  N        15.8186353634        6.7670874628       13.8679603919
  C        16.0898069102        6.4984157784       12.5506716641
  N         6.5580420587        5.2065158585        3.0493023829
  C         6.2887365644        5.4774427833        1.7314953426
  N         6.5557401903       16.0184295108       13.8669992302
  C         6.2856704807       16.2881166325       12.5497532952
  N         6.5565943329       17.5764173440       19.7327682069
  C         6.2890167889       17.3046085262       21.0505661057
  N         6.5553904537        6.7631032724        8.9133726932
  C         6.2854296185        6.4931310953       10.2304382299
  N        19.5287286772       17.5766707844        6.7619965823
  C        20.8465113650       17.3039912868        6.4932541150
  N         8.7065809664       17.5749012260       17.5749001323
  C        10.0240802379       17.3046679744       17.3046670532
  N         2.8464623694        5.2050332559        6.7612731336
  C         1.5285235997        5.4763374114        6.4924208680
  N        13.6629840072        5.2059540185       17.5732682313
  C        12.3451988033        5.4753586429       17.3029542424
  N         2.8460808146       17.5738313098       16.0174009364
  C         1.5280123908       17.3017508618       16.2856213235
  N        13.6629865712       17.5732682836        5.2059532128
  C        12.3451979552       17.3029539915        5.4753593374
  N        19.5276260622        5.2060772504       16.0198202372
  C        20.8457414070        5.4774047234       16.2876391558
  N         8.7084935122        5.2062612494        5.2062612410
  C        10.0259672805        5.4769315866        5.4769311617
  N         6.5565940925       19.7327716628       17.5764157484
  C         6.2890161134       21.0505684983       17.3046083076
  N         6.5553895155        8.9133724761        6.7631046955
  C         6.2854306374       10.2304393370        6.4931325926
  N         6.5580427760        3.0493051608        5.2065151999
  C         6.2887372244        1.7314952941        5.4774421116
  N         6.5557402222       13.8669998507       16.0184310676
  C         6.2856701007       12.5497553069       16.2881179701
  N        15.8145364175        3.0504636517       17.5739701417
  C        16.0817304481        1.7324084704       17.3016894944
  N        15.8186356579       13.8679592763        6.7670881340
  C        16.0898092143       12.5506719844        6.4984148821
  N        15.8117898579       19.7333533606        5.2058069453
  C        16.0804303185       21.0513130558        5.4773522032
  N        15.8137801796        8.9131041604       16.0192248297
  C        16.0847962167       10.2304384715       16.2878307249
  N        17.3676352931        6.7619295599       19.7331761587
  C        17.0963418403        6.4935229125       21.0510406890
  N        17.3698030704       17.5751564715        8.9131839776
  C        17.1006308717       17.3040261677       10.2305916305
  N         5.0026006420        6.7622055549        3.0496985605
  C         5.2726500984        6.4932449264        1.7319324093
  N         5.0020463273       17.5756767141       13.8674388501
  C         5.2706338042       17.3049746250       12.5498932173
  N        17.3695349223       16.0172352627        3.0499695007
  C        17.0972634390       16.2852509690        1.7321814439
  N        17.3724119986        5.2096222344       13.8684185655
  C        17.1042962020        5.4809805986       12.5509584728
  N         5.0025998637       16.0189792478       19.7330694335
  C         5.2740958547       16.2875377939       21.0508586063
  N         5.0017341638        5.2056508511        8.9127417854
  C         5.2707325058        5.4759546511       10.2301704480
  N        17.3681170556       19.7327868065       16.0171775443
  C        17.0963881238       21.0506625625       16.2852596221
  N        17.3731774339        8.9138157405        5.2085063672
  C        17.1047648864       10.2311913847        5.4804036948
  N         5.0049413463        3.0496371816       16.0189325751
  C         5.2754680942        1.7317978512       16.2876356576
  N         5.0024737218       13.8673402793        5.2048111307
  C         5.2710755527       12.5498321922        5.4754908844
  N        17.3692897267        3.0500155036        6.7627633672
  C        17.0973365107        1.7322876838        6.4939650093
  N        17.3705151908       13.8680842975       17.5732979304
  C        17.1010155238       12.5505990298       17.3030331435
  N         4.9996334805       19.7332640922        6.7621489531
  C         5.2709730303       21.0509719728        6.4933321840
  N         5.0008671649        8.9126271926       17.5749970853
  C         5.2700932936       10.2300704937       17.3046161435
  N        19.5288747583        6.7622574361        5.2059035731
  C        20.8467913080        6.4929473356        5.4768411321
  N         8.7070516783        6.7619692229       16.0182504295
  C        10.0244916807        6.4913015476       16.2874163468
  N         2.8462743335        6.7606957441       17.5733501748
  C         1.5283023117        6.4923772615       17.3020295832
  N        13.6631164732        6.7646522935        6.7646526827
  C        12.3456919263        6.4943172181        6.4943181633
  N         2.8458275571       16.0169362604        5.2044374703
  C         1.5277860027       16.2858496515        5.4763679557
  N        13.6621581780       16.0187244702       16.0187242070
  C        12.3446182308       16.2886669388       16.2886666757
  N        19.5279097783       16.0195946737       17.5760489996
  C        20.8459046602       16.2868831280       17.3029863744
  N         8.7070512955       16.0182492828        6.7619698273
  C        10.0244917177       16.2874151505        6.4913028034
  N         6.5584760290       17.5765666795        3.0493437843
  C         6.2901977810       17.3047873064        1.7315829337
  N         6.5555436512        6.7624832380       13.8668969865
  C         6.2855836807        6.4928190617       12.5497312704
  N         6.5555680002        5.2066966615       19.7327971081
  C         6.2872483982        5.4776410111       21.0506401821
  N         6.5552042002       16.0179724105        8.9130142297
  C         6.2853206710       16.2879309072       10.2301964987
  N        15.8128939451       17.5739928606       19.7328953499
  C        16.0807788708       17.3017311787       21.0508736979
  N        15.8193071760        6.7662114309        8.9138039648
  C        16.0902843648        6.4978829459       10.2310094874
  N        15.8136506380        5.2068554017        3.0510599170
  C        16.0814887726        5.4778779661        1.7329654693
  N        15.8149713469       16.0172869736       13.8678885252
  C        16.0853088985       16.2867798920       12.5504835362
 Zn        14.5194435717       14.7243935218       14.7243935231
 Cl        13.2893145791       13.4911379683       13.4911373306
 Zn        14.5222560775        3.9141980804        3.9141979777
 Cl        13.2820097799        2.6857226426        2.6857239294
 Zn         3.7137128425       14.7259239485        3.9090476767
 Cl         2.4833843990       13.4910934987        2.6768841960
 Zn         3.7137140493        3.9090517013       14.7259261926
 Cl         2.4833846537        2.6768861864       13.4910935791
 Zn         7.8471066582        8.0556337248       14.7237748181
 Cl         9.0803675015        9.2873473962       13.4918147031
 Zn         7.8462018207       18.8714207233        3.9130305304
 Cl         9.0847794890       20.1035231944        2.6867356874
 Zn        18.6632112059        8.0539121441        3.9114895031
 Cl        19.8926841779        9.2897931788        2.6799146386
 Zn        18.6622182150       18.8695061525       14.7264340952
 Cl        19.8930358697       20.0971722160       13.4879731983
 Zn         7.8471087673       14.7237742100        8.0556344863
 Cl         9.0803688142       13.4918141431        9.2873473055
 Zn         7.8462021283        3.9130335986       18.8714191893
 Cl         9.0847756855        2.6867383553       20.1035233714
 Zn        18.6622189246       14.7264336583       18.8695066735
 Cl        19.8930361762       13.4879729898       20.0971714151
 Zn        18.6632095743        3.9114887832        8.0539123343
 Cl        19.8926852316        2.6799152114        9.2897937748
 Zn        14.5233764375        8.0573378023        8.0573369614
 Cl        13.2996088693        9.2939113283        9.2939110764
 Zn        14.5230069781       18.8693799529       18.8693802302
 Cl        13.2853394453       20.0989944143       20.0989946346
 Zn         3.7091314794        8.0532701609       18.8692994785
 Cl         2.4735282408        9.2905443494       20.0935465718
 Zn         3.7091299266       18.8692988680        8.0532687990
 Cl         2.4735290131       20.0935464783        9.2905424718
 Zn        14.5202299923       14.7239351986        8.0559855836
 Cl        13.2925595707       13.4891416234        9.2902089159
 Zn        14.5224744828        3.9115016559       18.8685177754
 Cl        13.2834938367        2.6774652024       20.0924009971
 Zn         3.7121088447       14.7264095172       18.8705222810
 Cl         2.4790614400       13.4907108548       20.0990308817
 Zn         3.7115139264        3.9106058090        8.0537249277
 Cl         2.4783778614        2.6827360447        9.2900060547
 Zn         7.8475723311        8.0560026221        8.0560026614
 Cl         9.0809023256        9.2878555479        9.2878562120
 Zn         7.8462145022       18.8701342399       18.8701339842
 Cl         9.0866588091       20.0983847394       20.0983844636
 Zn        18.6620001254        8.0532610330       18.8708249996
 Cl        19.8893783451        9.2901370291       20.1034261777
 Zn        18.6619989190       18.8708229907        8.0532594466
 Cl        19.8893794071       20.1034247068        9.2901356693
 Zn        14.5202286587        8.0559872194       14.7239358077
 Cl        13.2925583938        9.2902086657       13.4891422833
 Zn        14.5224770399       18.8685159756        3.9115006711
 Cl        13.2834951168       20.0923996621        2.6774652403
 Zn         3.7115125142        8.0537249117        3.9106034116
 Cl         2.4783771942        9.2900066585        2.6827346938
 Zn         3.7121089839       18.8705230974       14.7264104147
 Cl         2.4790626829       20.0990313655       13.4907092140
 Zn         7.8468470081       14.7240074023       14.7240070760
 Cl         9.0796998156       13.4920051564       13.4920056350
 Zn         7.8467533187        3.9113668734        3.9113675268
 Cl         9.0834919122        2.6813120426        2.6813113289
 Zn        18.6628778153       14.7262167640        3.9128622788
 Cl        19.8955480998       13.4885638621        2.6861588940
 Zn        18.6628772149        3.9128634837       14.7262180243
 Cl        19.8955475097        2.6861594802       13.4885654027
 Zn         5.7810254834        5.9859329893       16.7988944864
 Zn        16.5977821742       16.7989110678       16.7989100860
 Zn        16.5991999910        5.9880477687        5.9880483369
 Zn         5.7810244252       16.7988887870        5.9859323488
 Zn         5.7815864529        5.9859056505        5.9859036746
 Zn        16.5980220317       16.7994334444        5.9871213257
 Zn         5.7809696602       16.7989481459       16.7989446283
 Zn        16.5980213610        5.9871222619       16.7994358657
  N         3.5924592392        5.9816669745       16.7960605001
  N        14.4103929964        5.9868563641        5.9868568005
  N        18.7816040534       16.7994607823       16.7994592996
  N         7.9608306740       16.7976603170        5.9850091438
  N        18.7826066876        5.9837067049        5.9837121220
  N         7.9608261079        5.9850127585       16.7976567472
  N         3.5924552000       16.7960570118        5.9816680116
  N        14.4089928498       16.7965976696       16.7965974708
  N        16.5926975683        3.7973015970        5.9841499295
  N        16.5925502745       14.6145462976       16.7955722156
  N        16.5916955976       18.9862487534       16.7968808465
  N        16.5954187151        8.1674546927        5.9865859544
  N         5.7769605738       18.9863475475        5.9837814727
  N         5.7783148603        8.1663879689       16.7966603092
  N         5.7809019149        3.7962583066       16.7984771120
  N         5.7795469059       14.6137770679        5.9833508984
  N         5.7809005522       16.7984812071        3.7962525446
  N         5.7795528879        5.9833389267       14.6137822758
  N        16.5916938392       16.7968835292       18.9862482105
  N        16.5954184980        5.9865849459        8.1674552463
  N         5.7769653373        5.9837840097       18.9863429206
  N         5.7783067936       16.7966522776        8.1663917831
  N        16.5926992358        5.9841504301        3.7973027603
  N        16.5925509464       16.7955732808       14.6145452355
  N         5.7800631307        3.7962519874        5.9839203317
  N         5.7793878294       14.6138384037       16.7973524529
  N        16.5906855176       18.9866833436        5.9830807581
  N        16.5912708485        8.1668304870       16.7977526361
  N         5.7785327220       18.9862691212       16.7986055484
  N         5.7789955675        8.1665948786        5.9841788313
  N        16.5934554898        3.7969307689       16.7969811982
  N        16.5947089794       14.6148015900        5.9875952860
  N         3.5924212318       16.7968146162       16.7968117633
  N        14.4093556690       16.7949365657        5.9836291277
  N        18.7818716210       16.7994382206        5.9832229798
  N         7.9603629414       16.7968536889       16.7968533481
  N        18.7818742763        5.9832200420       16.7994365738
  N         7.9618894215        5.9841821179        5.9841838659
  N         3.5929067311        5.9824507941        5.9824494760
  N        14.4093512135        5.9836281803       16.7949392941
  N        16.5906847352        5.9830810647       18.9866867408
  N        16.5912725290       16.7977524104        8.1668275857
  N        16.5934565703       16.7969797621        3.7969326398
  N        16.5947073373        5.9875965712       14.6147997316
  N         5.7800659969        5.9839156067        3.7962514499
  N         5.7793829715       16.7973555433       14.6138375492
  N         5.7785307173       16.7986053846       18.9862665402
  N         5.7790002284        5.9841781981        8.1665946799
  C        11.1843522628       15.7381463589       15.7381461328
  H        11.1841166358       14.9625470771       14.9625471203
  C        11.1868537837        4.9272338313        4.9272345033
  H        11.1879649518        4.1517015994        4.1517031642
  C         0.3661677306       15.7358842198        4.9275084340
  H         0.3648477184       14.9597893304        4.1525059972
  C         0.3661679516        4.9275087936       15.7358858963
  H         0.3648473629        4.1525048260       14.9597910743
  C        11.1846036075        7.0410416417       15.7358335445
  H        11.1841352789        7.8163057666       14.9599054526
  C        11.1850630022       17.8541184107        4.9254635649
  H        11.1851744391       18.6300717850        4.1503584353
  C         0.3676668704        7.0431721937        4.9267689528
  H         0.3677373093        7.8188579692        4.1513677618
  C         0.3669595101       17.8514284720       15.7352019324
  H         0.3669179633       18.6262084835       14.9588981072
  C        11.1846066742       15.7358337541        7.0410418182
  H        11.1841359906       14.9599054952        7.8163064232
  C        11.1850602271        4.9254635554       17.8541176279
  H        11.1851719051        4.1503586348       18.6300704115
  C         0.3669599256       15.7352027832       17.8514269332
  H         0.3669187147       14.9588994341       18.6262060576
  C         0.3676670924        4.9267690107        7.0431713491
  H         0.3677390302        4.1513674399        7.8188572428
  C        11.1849235035        7.0441942797        7.0441947603
  H        11.1835653558        7.8197812579        7.8197823749
  C        11.1844477525       17.8550240466       17.8550232926
  H        11.1842102444       18.6305495704       18.6305489079
  C         0.3680440391        7.0434932898       17.8525252522
  H         0.3693988300        7.8194132576       18.6276772183
  C         0.3680430651       17.8525237573        7.0434926021
  H         0.3693998069       18.6276753118        7.8194135671
  C        15.5349437488       11.3903581637       15.7360515355
  H        14.7599074158       11.3900585790       14.9598526701
  C        15.5303272931        0.5725173686        4.9277291252
  H        14.7548175542        0.5733953730        4.1521334233
  C         4.7207480727       11.3899894422        4.9244532260
  H         3.9461311468       11.3898252668        4.1479590100
  C         4.7255922046        0.5716808520       15.7360077054
  H         3.9511634633        0.5724911801       14.9592930071
  C        15.5407053060       11.3906169384        7.0503815869
  H        14.7661645731       11.3900399904        7.8270698095
  C        15.5305598361        0.5718960062       17.8514275250
  H        14.7550240927        0.5725731836       18.6269970042
  C         4.7198977092       11.3900261342       17.8556327960
  H         3.9445920155       11.3899933101       18.6314319090
  C         4.7216284268        0.5718470232        7.0439645459
  H         3.9461394906        0.5728010197        7.8196147689
  C         6.8358851149       11.3899365792       15.7369252114
  H         7.6113784640       11.3898337624       14.9612240774
  C         6.8391396957        0.5707277749        4.9279677605
  H         7.6157536429        0.5700815330        4.1534908643
  C        17.6546137771       11.3912906724        4.9296036386
  H        18.4288574819       11.3916685429        4.1527960625
  C        17.6462523158        0.5712390812       15.7342101029
  H        18.4215959505        0.5709355062       14.9584441320
  C         6.8355569775       11.3901271516        7.0445451066
  H         7.6104380123       11.3901206729        7.8208582955
  C         6.8401288790        0.5708041721       17.8549131993
  H         7.6156237664        0.5702521188       18.6305069284
  C        17.6514736870       11.3907300676       17.8539081396
  H        18.4269057648       11.3909327790       18.6295328172
  C        17.6464957448        0.5713761603        7.0445482782
  H        18.4217555257        0.5708516741        7.8203922558
  C        15.5349444713       15.7360516973       11.3903572105
  H        14.7599083013       14.9598529895       11.3900582721
  C        15.5303266457        4.9277279354        0.5725184673
  H        14.7548167170        4.1521318430        0.5733961533
  C         4.7255946049       15.7360064147        0.5716776395
  H         3.9511651246       14.9592936612        0.5724893929
  C         4.7207478270        4.9244541461       11.3899905606
  H         3.9461353085        4.1479536234       11.3898243450
  C         6.8358860387       15.7369256397       11.3899365558
  H         7.6113752310       14.9612213592       11.3898338853
  C         6.8391370263        4.9279677836        0.5707256820
  H         7.6157516547        4.1534915033        0.5700794645
  C        17.6462537721       15.7342101547        0.5712387426
  H        18.4215972237       14.9584443413        0.5709339853
  C        17.6546128300        4.9296028644       11.3912910883
  H        18.4288567170        4.1527950571       11.3916699386
  C        15.5407045528        7.0503807026       11.3906168281
  H        14.7661644231        7.8270683405       11.3900402078
  C        15.5305611538       17.8514279131        0.5718960291
  H        14.7550249161       18.6269977344        0.5725734042
  C         4.7216254111        7.0439644722        0.5718456972
  H         3.9461363988        7.8196158524        0.5728009850
  C         4.7198992559       17.8556333923       11.3900261493
  H         3.9445904512       18.6314285424       11.3899917987
  C         6.8355571038        7.0445456402       11.3901275560
  H         7.6104441499        7.8208537588       11.3901214001
  C         6.8401316665       17.8549129214        0.5708011103
  H         7.6156255115       18.6305087158        0.5702493779
  C        17.6464953614        7.0445477906        0.5713778511
  H        18.4217545156        7.8203912550        0.5708528392
  C        17.6514738986       17.8539078403       11.3907288770
  H        18.4269065454       18.6295329945       11.3909319558
 Kr        18.2456720353       10.5905887449       10.5905890605
