     409
 i =      96, E =    -5186.5837593964
  N         2.8324308999        5.2050951317       16.0172753498
  C         1.5144788374        5.4765782511       16.2857230307
  N        13.6492887469        5.2056396421        5.2056096577
  C        12.3317813179        5.4755630465        5.4755941946
  N        19.5170918606       17.5743177048       16.0181357848
  C        20.8349623447       17.3021960889       16.2861501171
  N         8.6954349346       17.5756626049        5.2071004888
  C        10.0129030761       17.3041039951        5.4756104163
  N        19.5135720690        5.2051761542        6.7612016657
  C        20.8313873663        5.4767102618        6.4927349400
  N         8.6954319274        5.2071119058       17.5756796737
  C        10.0129076105        5.4756071017       17.3041003030
  N         2.8322023895       17.5731966846        6.7611931591
  C         1.5144426696       17.3017513345        6.4925448939
  N        13.6524940695       17.5734626914       17.5734651027
  C        12.3347881965       17.3037648675       17.3037611426
  N        15.7998362528        3.0485306994        5.2045518912
  C        16.0684569450        1.7305994434        5.4755248214
  N        15.8043112422       13.8662510666       16.0162193142
  C        16.0746172331       12.5488817531       16.2855729649
  N        15.8029863174       19.7308391445       17.5722043463
  C        16.0710001492       21.0487689085       17.3000692173
  N        15.8025048644        8.9118464130        6.7618956295
  C        16.0738827098       10.2290342384        6.4932491178
  N         6.5432142405       19.7330043434        5.2078099377
  C         6.2740445495       21.0508063192        5.4786479052
  N         6.5439792164        8.9128430153       16.0186810240
  C         6.2743333321       10.2301288322       16.2888707706
  N         6.5461520211        3.0502413889       17.5764612454
  C         6.2781427913        1.7323075446       17.3046970533
  N         6.5436888284       13.8672700512        6.7615243692
  C         6.2733353022       12.5500372236        6.4918470081
  N         4.9910499431       16.0195999125        3.0500464576
  C         5.2626895242       16.2881531925        1.7322184348
  N         4.9888508905        5.2048218019       13.8679270947
  C         5.2579608126        5.4752661615       12.5503103533
  N        17.3585190623       16.0154915454       19.7308488305
  C        17.0867231685       16.2836951649       21.0487949319
  N        17.3581649963        5.2056291197        8.9113308153
  C        17.0895742154        5.4769360755       10.2288198217
  N         4.9858404216        6.7625345843       19.7330013160
  C         5.2571670992        6.4938239428       21.0508395837
  N         4.9880877229       17.5749157765        8.9127547478
  C         5.2584508773       17.3049980039       10.2301971989
  N        17.3559339946        6.7603971510        3.0482417814
  C        17.0844590516        6.4915095329        1.7303808603
  N        17.3607499264       17.5716521120       13.8662885231
  C        17.0908303925       17.3013820167       12.5487833701
  N         4.9862364344        3.0500337552        6.7620909362
  C         5.2574669902        1.7322118029        6.4935603789
  N         4.9903235960       13.8680364467       17.5758843285
  C         5.2594393148       12.5504019037       17.3054447699
  N        17.3555704615       19.7310515952        6.7598474301
  C        17.0841236778       21.0489032287        6.4912256591
  N        17.3584648141        8.9110711090       17.5733178545
  C        17.0897130338       10.2285896739       17.3022026462
  N         4.9908749195       19.7329532274       16.0193528250
  C         5.2624717214       21.0508024705       16.2879315316
  N         4.9869563313        8.9127699661        5.2057906951
  C         5.2570751693       10.2302282290        5.4757653885
  N        17.3585113740        3.0483743170       16.0153232503
  C        17.0868856887        1.7304377293       16.2835897187
  N        17.3598211097       13.8663471706        5.2070494080
  C        17.0903342621       12.5488679734        5.4775644528
  N         2.8344564977       16.0180945717       17.5741396666
  C         1.5165257994       16.2859459166       17.3019664318
  N        13.6502766655       16.0157940436        6.7593858062
  C        12.3329391586       16.2860450758        6.4897025102
  N        19.5151302791       16.0180321506        5.2053282521
  C        20.8330100121       16.2863443169        5.4768059169
  N         8.6966464975       16.0185894989       16.0185949423
  C        10.0140484774       16.2883112535       16.2883041560
  N        19.5152858928        6.7607063469       17.5747927806
  C        20.8331078563        6.4924879706       17.3027308532
  N         8.6945278470        6.7614864233        6.7614391719
  C        10.0117576097        6.4914966465        6.4915378100
  N         2.8303914253        6.7621617399        5.2062483235
  C         1.5125941257        6.4931211672        5.4771398908
  N        13.6502768043        6.7593958366       16.0158023940
  C        12.3329359756        6.4897039523       16.2860481844
  N        15.7996419928        5.2035647539       19.7310017203
  C        16.0682109851        5.4750528043       21.0489716321
  N        15.8022315474       16.0175018416        8.9115880431
  C        16.0736272744       16.2862699650       10.2288430277
  N        15.8027812900       17.5716547433        3.0482659188
  C        16.0710939550       17.2997939777        1.7303712409
  N        15.8039366164        6.7628613760       13.8661584660
  C        16.0744734451        6.4937000072       12.5488405718
  N         6.5430172763        5.2069833998        3.0499898055
  C         6.2740813365        5.4781883030        1.7321237088
  N         6.5453630783       16.0193195777       13.8674381131
  C         6.2750855458       16.2891114156       12.5501326712
  N         6.5464935528       17.5759561861       19.7330027769
  C         6.2781169645       17.3043528103       21.0508543126
  N         6.5425759494        6.7621190488        8.9130194534
  C         6.2727344485        6.4921012280       10.2302309753
  N        19.5152878726       17.5747945259        6.7607029785
  C        20.8331073956       17.3027319942        6.4924884754
  N         8.6970919496       17.5747182604       17.5747232532
  C        10.0144728773       17.3043184253       17.3043110059
  N         2.8303884574        5.2062583524        6.7621517164
  C         1.5126052169        5.4771390023        6.4931218323
  N        13.6506771173        5.2037838995       17.5720091319
  C        12.3330985576        5.4739745796       17.3023231051
  N         2.8344551986       17.5741403218       16.0180944071
  C         1.5165260572       17.3019671774       16.2859454320
  N        13.6506779528       17.5720011292        5.2037742649
  C        12.3330956961       17.3023211186        5.4739726298
  N        19.5151291460        5.2053307511       16.0180293150
  C        20.8330066248        5.4768054992       16.2863431249
  N         8.6940517450        5.2056190763        5.2055702592
  C        10.0116153380        5.4755135820        5.4755547550
  N         6.5464897625       19.7330009082       17.5759577451
  C         6.2781171459       21.0508547782       17.3043510502
  N         6.5425890489        8.9130119072        6.7620855945
  C         6.2727210184       10.2302313461        6.4921190594
  N         6.5430098107        3.0499817122        5.2069542206
  C         6.2740953746        1.7321230577        5.4782034411
  N         6.5453674035       13.8674401695       16.0193239482
  C         6.2750797146       12.5501340224       16.2891060228
  N        15.8027821229        3.0482645159       17.5716570528
  C        16.0710930771        1.7303710802       17.2997933773
  N        15.8039295246       13.8661570483        6.7628546544
  C        16.0744742443       12.5488455949        6.4937004187
  N        15.7996501320       19.7309991221        5.2035624175
  C        16.0682124704       21.0489755612        5.4750533680
  N        15.8022285117        8.9115869898       16.0175014918
  C        16.0736262003       10.2288436499       16.2862692347
  N        17.3555650032        6.7598526194       19.7310509014
  C        17.0841203332        6.4912234978       21.0489029637
  N        17.3584673117       17.5733176423        8.9110736900
  C        17.0897140541       17.3022032657       10.2285906117
  N         4.9862524265        6.7621095437        3.0500422478
  C         5.2574502069        6.4935473839        1.7322009550
  N         4.9903195197       17.5758801540       13.8680353319
  C         5.2594447977       17.3054507795       12.5504002598
  N        17.3585100507       16.0153210130        3.0483762462
  C        17.0868870630       16.2835896940        1.7304378541
  N        17.3598266535        5.2070577638       13.8663461989
  C        17.0903349208        5.4775625554       12.5488679320
  N         4.9908772548       16.0193497018       19.7329537896
  C         5.2624716461       16.2879333110       21.0508021134
  N         4.9869340199        5.2058131288        8.9127799463
  C         5.2570929442        5.4757506879       10.2302160746
  N        17.3585192034       19.7308499778       16.0154932047
  C        17.0867227096       21.0487939501       16.2836948527
  N        17.3581453153        8.9113249047        5.2056207450
  C        17.0895849235       10.2288163128        5.4769410474
  N         4.9910456850        3.0500447887       16.0196043816
  C         5.2626886292        1.7322187280       16.2881526146
  N         4.9888629038       13.8679276195        5.2048156707
  C         5.2579576263       12.5503184661        5.4752722089
  N        17.3559491625        3.0482371934        6.7603933697
  C        17.0844507386        1.7303780368        6.4915143703
  N        17.3607495539       13.8662893052       17.5716534454
  C        17.0908307658       12.5487812692       17.3013807246
  N         4.9858225938       19.7330053238        6.7625321992
  C         5.2571755877       21.0508495988        6.4938302550
  N         4.9880992077        8.9127497500       17.5749189000
  C         5.2584419931       10.2301956335       17.3049920366
  N        19.5135734431        6.7611931780        5.2051844019
  C        20.8313769019        6.4927355362        5.4767095327
  N         8.6956064405        6.7618290576       16.0184985306
  C        10.0129123778        6.4909458801       16.2874546626
  N         2.8322017241        6.7611901713       17.5731878251
  C         1.5144466244        6.4925461244       17.3017520602
  N        13.6490019422        6.7615319037        6.7614991106
  C        12.3316629875        6.4915644497        6.4915944777
  N         2.8324282033       16.0172798062        5.2050931288
  C         1.5144833287       16.2857235466        5.4765780090
  N        13.6516346146       16.0175910020       16.0175938641
  C        12.3342784548       16.2877560973       16.2877526759
  N        19.5170903016       16.0181350106       17.5743177730
  C        20.8349641597       16.2861506528       17.3021951175
  N         8.6956044764       16.0184788757        6.7618185903
  C        10.0129178676       16.2874599681        6.4909469206
  N         6.5461568317       17.5764578621        3.0502411590
  C         6.2781439582       17.3046981163        1.7323092824
  N         6.5436725021        6.7615270720       13.8672686497
  C         6.2733414139        6.4918445958       12.5500396506
  N         6.5432277840        5.2078158926       19.7329973255
  C         6.2740364792        5.4786411454       21.0508093764
  N         6.5439748537       16.0186706774        8.9128479575
  C         6.2743385716       16.2888801255       10.2301298492
  N        15.8029861600       17.5722027286       19.7308396891
  C        16.0710007740       17.3000694245       21.0487685183
  N        15.8025161780        6.7619123461        8.9118560117
  C        16.0738753392        6.4932405384       10.2290295653
  N        15.7998288985        5.2045629761        3.0485388936
  C        16.0684619535        5.4755163056        1.7305951407
  N        15.8043111716       16.0162175428       13.8662516401
  C        16.0746169103       16.2855743320       12.5488814780
 Zn        14.5084988126       14.7234234025       14.7234248392
 Cl        13.2765841329       13.4910897835       13.4910890697
 Zn        14.5075010486        3.9107697911        3.9107734701
 Cl        13.2677984816        2.6822333718        2.6822328196
 Zn         3.6956199086       14.7266962490        3.9095102132
 Cl         2.4676942106       13.4909546968        2.6765495502
 Zn         3.6956189349        3.9095056447       14.7266964174
 Cl         2.4676923303        2.6765505927       13.4909543506
 Zn         7.8376773556        8.0550962298       14.7239224760
 Cl         9.0698067799        9.2869919186       13.4913286970
 Zn         7.8363640043       18.8715963824        3.9142032487
 Cl         9.0737475197       20.1038869161        2.6871295676
 Zn        18.6513899134        8.0520612425        3.9096328255
 Cl        19.8797493053        9.2882932957        2.6776570363
 Zn        18.6541300714       18.8678317628       14.7249186060
 Cl        19.8840108973       20.0951142177       13.4854471392
 Zn         7.8376790962       14.7239212554        8.0551024387
 Cl         9.0698080077       13.4913304958        9.2869916712
 Zn         7.8363662099        3.9141966914       18.8715965352
 Cl         9.0737487551        2.6871284002       20.1038877450
 Zn        18.6541310374       14.7249171488       18.8678328001
 Cl        19.8840124509       13.4854462305       20.0951146869
 Zn        18.6513896419        3.9096261805        8.0520681677
 Cl        19.8797488856        2.6776573315        9.2882946511
 Zn        14.5072405405        8.0550343698        8.0550371656
 Cl        13.2780800657        9.2887273388        9.2887256601
 Zn        14.5118110185       18.8680076363       18.8680088315
 Cl        13.2757828091       20.0983224092       20.0983221235
 Zn         3.6920737435        8.0535390998       18.8686164273
 Cl         2.4596380829        9.2922848625       20.0940505969
 Zn         3.6920712084       18.8686171110        8.0535449617
 Cl         2.4596394062       20.0940502568        9.2922834275
 Zn        14.5076480473       14.7231275615        8.0545643232
 Cl        13.2768324598       13.4903701149        9.2875401848
 Zn        14.5093731836        3.9086421799       18.8664262739
 Cl        13.2714149758        2.6745994041       20.0910378618
 Zn         3.6963996782       14.7270703302       18.8703921174
 Cl         2.4661518871       13.4905133149       20.1002678300
 Zn         3.6916631758        3.9116627269        8.0538198468
 Cl         2.4613333961        2.6832309407        9.2917428067
 Zn         7.8372595365        8.0552093694        8.0552043455
 Cl         9.0699447569        9.2871958678        9.2871923538
 Zn         7.8382239335       18.8698457694       18.8698458141
 Cl         9.0785523016       20.0980094771       20.0980075519
 Zn        18.6514258785        8.0515285988       18.8696719547
 Cl        19.8783895996        9.2885043472       20.1023220889
 Zn        18.6514265073       18.8696715482        8.0515269888
 Cl        19.8783909146       20.1023215840        9.2885034305
 Zn        14.5076464744        8.0545660668       14.7231253859
 Cl        13.2768313223        9.2875404121       13.4903693895
 Zn        14.5093746967       18.8664269883        3.9086415843
 Cl        13.2714166707       20.0910383647        2.6745989163
 Zn         3.6916587982        8.0538294274        3.9116526699
 Cl         2.4613311565        9.2917485899        2.6832261189
 Zn         3.6963991090       18.8703919372       14.7270706010
 Cl         2.4661534083       20.1002677103       13.4905122187
 Zn         7.8383249198       14.7242809274       14.7242801277
 Cl         9.0698120110       13.4917108572       13.4917103919
 Zn         7.8345215283        3.9113274254        3.9113207567
 Cl         9.0691081511        2.6803311767        2.6803275865
 Zn        18.6537061837       14.7246550580        3.9116493066
 Cl        19.8847186892       13.4859771946        2.6846452146
 Zn        18.6537039560        3.9116510360       14.7246554012
 Cl        19.8847164348        2.6846467183       13.4859785745
 Zn         5.7679758632        5.9865488824       16.7992219693
 Zn        16.5843752119       16.7955816141       16.7955832894
 Zn        16.5783731289        5.9846829090        5.9846630730
 Zn         5.7679785719       16.7992237767        5.9865466327
 Zn         5.7653785059        5.9864441404        5.9864040284
 Zn        16.5807888876       16.7957061026        5.9841546881
 Zn         5.7708484445       16.7995122428       16.7995088978
 Zn        16.5807824612        5.9841526777       16.7956987487
  N         3.5789823658        5.9823749593       16.7962352943
  N        14.3955863947        5.9835177281        5.9835369170
  N        18.7705622931       16.7974092276       16.7974039222
  N         7.9491244976       16.7979235903        5.9852847027
  N        18.7669141886        5.9824115505        5.9823918938
  N         7.9491283058        5.9852772530       16.7978926713
  N         3.5789883254       16.7962235367        5.9823702118
  N        14.3986116847       16.7954002834       16.7953996302
  N        16.5786214119        3.7950679128        5.9818085991
  N        16.5823208390       14.6127051786       16.7941774814
  N        16.5818489909       18.9842226840       16.7950328744
  N        16.5795488707        8.1652247414        5.9831687919
  N         5.7640808892       18.9863849001        5.9845952691
  N         5.7659926291        8.1664678982       16.7968058676
  N         5.7675417190        3.7968173755       16.7989761280
  N         5.7667053768       14.6141802181        5.9830224467
  N         5.7675410071       16.7989831551        3.7968176520
  N         5.7667249239        5.9830211291       14.6141708124
  N        16.5818477799       16.7950366810       18.9842219521
  N        16.5795297375        5.9831649045        8.1652184232
  N         5.7640568280        5.9845997013       18.9863844121
  N         5.7659988029       16.7968115162        8.1664596678
  N        16.5786358645        5.9818043012        3.7950608508
  N        16.5823231695       16.7941819303       14.6127052885
  N         5.7639440263        3.7967021875        5.9838825705
  N         5.7683116132       14.6142939743       16.7978463254
  N        16.5785166940       18.9843852048        5.9810122449
  N        16.5795803365        8.1649667680       16.7960655599
  N         5.7677939687       18.9863837156       16.7985058708
  N         5.7647514149        8.1665595743        5.9840319608
  N        16.5816374221        3.7949715446       16.7945661231
  N        16.5815832052       14.6127161063        5.9846452535
  N         3.5810919908       16.7974640564       16.7974607242
  N        14.3969691557       16.7938461397        5.9816047999
  N        18.7686052224       16.7973830374        5.9820650459
  N         7.9505487052       16.7967844712       16.7967804783
  N        18.7686018315        5.9820563030       16.7973822930
  N         7.9478389685        5.9836467446        5.9836645036
  N         3.5770568497        5.9836944331        5.9837159166
  N        14.3969697984        5.9815876359       16.7938382975
  N        16.5785149760        5.9810034958       18.9843809212
  N        16.5795814291       16.7960673622        8.1649689926
  N        16.5816412791       16.7945700158        3.7949720573
  N        16.5815769540        5.9846307244       14.6127127734
  N         5.7639431438        5.9838644902        3.7966973915
  N         5.7683131365       16.7978469417       14.6142907983
  N         5.7677935930       16.7985120512       18.9863833270
  N         5.7647517176        5.9840110090        8.1665520446
  C        11.1739319482       15.7374291900       15.7374253443
  H        11.1734323125       14.9618229634       14.9618202615
  C        11.1717081458        4.9250306665        4.9250544177
  H        11.1718419236        4.1494924650        4.1495090131
  C         0.3535682055       15.7350323010        4.9271934642
  H         0.3531074011       14.9589090420        4.1522062965
  C         0.3535658066        4.9271943292       15.7350305075
  H         0.3531055416        4.1522068719       14.9589066096
  C        11.1728840458        7.0405832022       15.7357279154
  H        11.1726915180        7.8159358982       14.9598753207
  C        11.1730377645       17.8537577582        4.9243529675
  H        11.1730115889       18.6295385263        4.1490577495
  C         0.3520121497        7.0436493738        4.9270697787
  H         0.3522165663        7.8193969866        4.1517186922
  C         0.3557712208       17.8513664097       15.7349395405
  H         0.3557994182       18.6261900282       14.9586622646
  C        11.1728882048       15.7357242981        7.0405803236
  H        11.1726915054       14.9598699762        7.8159329902
  C        11.1730390964        4.9243547014       17.8537612244
  H        11.1730117834        4.1490593993       18.6295434286
  C         0.3557717059       15.7349389910       17.8513662866
  H         0.3557995523       14.9586608533       18.6261904799
  C         0.3520234451        4.9270716844        7.0436473268
  H         0.3522215360        4.1517207188        7.8193946727
  C        11.1716853388        7.0421967166        7.0422196184
  H        11.1714508344        7.8178000374        7.8178154191
  C        11.1749068622       17.8544842525       17.8544798749
  H        11.1750372848       18.6300167822       18.6300131574
  C         0.3539988145        7.0433149460       17.8518980719
  H         0.3547104713        7.8192352624       18.6270602696
  C         0.3539971268       17.8518994225        7.0433141962
  H         0.3547121794       18.6270617548        7.8192347314
  C        15.5237532053       11.3889382987       15.7349900522
  H        14.7482332606       11.3889529665       14.9592859104
  C        15.5176805865        0.5699729686        4.9255234359
  H        14.7419355979        0.5705469040        4.1501788861
  C         4.7071834376       11.3903694746        4.9247770782
  H         3.9320170898       11.3903720409        4.1488584912
  C         4.7132921665        0.5716322939       15.7368708395
  H         3.9385996481        0.5720256625       14.9604531719
  C        15.5238724261       11.3889777031        7.0445818695
  H        14.7481261830       11.3889198772        7.8200594575
  C        15.5203302142        0.5696704067       17.8495682656
  H        14.7445698476        0.5701239464       18.6249119089
  C         4.7084733771       11.3904369523       17.8557418669
  H         3.9329625551       11.3904950708       18.6313047741
  C         4.7071832537        0.5716863053        7.0440782804
  H         3.9316131235        0.5721094326        7.8195918401
  C         6.8252516983       11.3900328473       15.7382525313
  H         7.6008671263       11.3897945315       14.9626620279
  C         6.8252808427        0.5713819052        4.9291302735
  H         7.6019374591        0.5711814184        4.1546865698
  C        17.6404830503       11.3888096861        4.9267312103
  H        18.4155571998       11.3887950116        4.1507370897
  C        17.6361934367        0.5695704628       15.7326499141
  H        18.4112462207        0.5695228920       14.9566101925
  C         6.8232971270       11.3900623853        7.0430708584
  H         7.5983825844       11.3898973697        7.8191852702
  C         6.8288074836        0.5715290393       17.8543151540
  H         7.6045765086        0.5713425046       18.6296316330
  C        17.6410478430       11.3886187422       17.8519739843
  H        18.4166160259       11.3885450462       18.6274700478
  C        17.6338902774        0.5695235712        7.0421577088
  H        18.4089517637        0.5693479323        7.8181943630
  C        15.5237535489       15.7349905163       11.3889378251
  H        14.7482338290       14.9592864504       11.3889526859
  C        15.5176798692        4.9255210904        0.5699763255
  H        14.7419331880        4.1501766434        0.5705471667
  C         4.7132928762       15.7368698515        0.5716329526
  H         3.9386002471       14.9604515509        0.5720254346
  C         4.7071901413        4.9247728676       11.3903662719
  H         3.9320237348        4.1488583029       11.3903668877
  C         6.8252565363       15.7382587040       11.3900346520
  H         7.6008696688       14.9626673891       11.3897927846
  C         6.8252738025        4.9291231548        0.5713883920
  H         7.6019358311        4.1546793002        0.5711829726
  C        17.6361946105       15.7326490167        0.5695716793
  H        18.4112483381       14.9566084087        0.5695225716
  C        17.6404814932        4.9267317610       11.3888139479
  H        18.4155561269        4.1507394786       11.3887938542
  C        15.5238721180        7.0445810296       11.3889800865
  H        14.7481282184        7.8200585112       11.3889198980
  C        15.5203308657       17.8495679597        0.5696710142
  H        14.7445702938       18.6249117647        0.5701240799
  C         4.7071740437        7.0440727790        0.5716783181
  H         3.9316046559        7.8195906560        0.5721038929
  C         4.7084797595       17.8557468438       11.3904394328
  H         3.9329680716       18.6313076728       11.3904942552
  C         6.8233019229        7.0430663589       11.3900707286
  H         7.5983834162        7.8191814063       11.3898977310
  C         6.8288088424       17.8543150631        0.5715295906
  H         7.6045773079       18.6296306781        0.5713420499
  C        17.6338906380        7.0421570033        0.5695268996
  H        18.4089516682        7.8181950026        0.5693456193
  C        17.6410478176       17.8519739542       11.3886207060
  H        18.4166152502       18.6274688879       11.3885467021
 Kr        19.3676461622       10.6834711183       10.6834713164
