     409
 i =      96, E =    -5186.5735633097
  N         2.9048613216        5.2034797472       16.0004515125
  C         1.5869801651        5.4734986459       16.2711086688
  N        13.7101774437        5.1342888266        5.1342888484
  C        12.3937731795        5.4091025738        5.4091015490
  N        19.5914090220       17.5646758518       16.0088565840
  C        20.9094898173       17.2932562018       16.2771848434
  N         8.7550057256       17.5925566791        5.1749525868
  C        10.0763745278       17.3302777197        5.4316571983
  N        19.5831041189        5.2023325156        6.7587786008
  C        20.9011328685        5.4744506268        6.4905573166
  N         8.7550052406        5.1749532260       17.5925577938
  C        10.0763738968        5.4316581279       17.3302794144
  N         2.9055176777       17.5546671654        6.7611747616
  C         1.5874821078       17.2866254084        6.4901028398
  N        13.7176241817       17.6180653504       17.6180656623
  C        12.4015646191       17.3432669665       17.3432669203
  N        15.8954958469        3.0350843372        5.1839013398
  C        16.1607282918        1.7197805289        5.4628409693
  N        15.8624444348       13.8612082047       16.0098008909
  C        16.1358237721       12.5423586900       16.2745560393
  N        15.8975926909       19.7272183888       17.5747919247
  C        16.1620819624       21.0429193108       17.2955145632
  N        15.8514627333        8.8978706147        6.7502770991
  C        16.1234795860       10.2173577572        6.4890011999
  N         6.5922100087       19.7258612459        5.1949875499
  C         6.3229806093       21.0418461726        5.4698187031
  N         6.6411527770        8.9016760454       16.0120548922
  C         6.3704562208       10.2205995999       16.2789282003
  N         6.5980839069        3.0389068672       17.5753673373
  C         6.3315232883        1.7222238896       17.3003916110
  N         6.6355075700       13.8594675950        6.7473871480
  C         6.3630902073       12.5408889275        6.4823819504
  N         5.0559268104       16.0067245051        3.0406907675
  C         5.3239633548       16.2762165901        1.7224916264
  N         5.0697632152        5.2014176538       13.8572577625
  C         5.3407507881        5.4727196427       12.5405075855
  N        17.4375061399       16.0030006054       19.7233281997
  C        17.1678557498       16.2693305823       21.0417033835
  N        17.4171617538        5.2046809446        8.9040294635
  C        17.1462000186        5.4798671943       10.2206776783
  N         5.0500627551        6.7634943995       19.7205523826
  C         5.3154998736        6.4942223527       21.0396669532
  N         5.0727367758       17.5551719124        8.9053213350
  C         5.3467460922       17.2872737984       10.2219427196
  N        17.4335113277        6.7575691915        3.0397812524
  C        17.1653125844        6.4899361813        1.7214427321
  N        17.4283269427       17.5550753574       13.8600897383
  C        17.1588139425       17.2836756704       12.5426011660
  N         5.0442759677        3.0395110763        6.7615904196
  C         5.3129413922        1.7210614557        6.4931512648
  N         5.0744413719       13.8582124346       17.5588287933
  C         5.3470338105       12.5414531094       17.2892759790
  N        17.4356005896       19.7238298524        6.7558574432
  C        17.1659681270       21.0418501768        6.4886905802
  N        17.4292753227        8.9048483777       17.5638164069
  C        17.1594781062       10.2214365773       17.2881826583
  N         5.0589243828       19.7226896299       16.0054576391
  C         5.3251711544       21.0414163470       16.2753533057
  N         5.0671719502        8.9046214347        5.2025535411
  C         5.3400766210       10.2209513619        5.4734356074
  N        17.4352255646        3.0404279403       16.0006583132
  C        17.1670161711        1.7218407558       16.2678606491
  N        17.4166089479       13.8600952251        5.2140792773
  C        17.1458825494       12.5423504090        5.4846308822
  N         2.9090872119       16.0036278884       17.5593973122
  C         1.5911247512       16.2745752730       17.2906287127
  N        13.7279077412       16.0621345566        6.6903222223
  C        12.4076451519       16.3252838685        6.4271694299
  N        19.5867422262       16.0064199747        5.2014339736
  C        20.9051032792       16.2742266972        5.4722788309
  N         8.7790561696       16.0320018380       16.0320015679
  C        10.0922040115       16.3126603006       16.3126596298
  N        19.5879540007        6.7559671654       17.5642355699
  C        20.9057581941        6.4875857100       17.2911374338
  N         8.7716418365        6.7212847405        6.7212834147
  C        10.0844064915        6.4399889580        6.4399867943
  N         2.9007714490        6.7631305030        5.2068806817
  C         1.5828924710        6.4928069416        5.4767627615
  N        13.7279070857        6.6903226481       16.0621350741
  C        12.4076445882        6.4271703384       16.3252846753
  N        15.8964153357        5.1828882165       19.7270439454
  C        16.1609084402        5.4618525276       21.0427272156
  N        15.8646184453       16.0178534784        8.8987128495
  C        16.1368864038       16.2788695039       10.2183338555
  N        15.8961504214       17.5726752676        3.0357502474
  C        16.1615601241       17.2941550995        1.7202629899
  N        15.8508321160        6.7603450750       13.8605028220
  C        16.1232052227        6.4940683819       12.5419177404
  N         6.5854646035        5.1922315624        3.0368241282
  C         6.3199543844        5.4684700722        1.7205172644
  N         6.6414266142       16.0139947047       13.8608805324
  C         6.3700908948       16.2803263184       12.5423616736
  N         6.6014501824       17.5735847466       19.7263201442
  C         6.3329790517       17.2994073997       21.0428161606
  N         6.6349288211        6.7463267332        8.8997730354
  C         6.3632713751        6.4823060465       10.2190297855
  N        19.5879551737       17.5642325256        6.7559679971
  C        20.9057593127       17.2911352763        6.4875859201
  N         8.7585704533       17.5879405286       17.5879421837
  C        10.0798110739       17.3280021213       17.3280028970
  N         2.9007712405        5.2068821346        6.7631311690
  C         1.5828925065        5.4767639928        6.4928072326
  N        13.7144997098        5.1414183911       17.6207407186
  C        12.3983316685        5.4147148133       17.3444033301
  N         2.9090875894       17.5593998132       16.0036283737
  C         1.5911250811       17.2906311680       16.2745750174
  N        13.7145000632       17.6207385965        5.1414162284
  C        12.3983322946       17.3444014534        5.4147130669
  N        19.5867410915        5.2014374652       16.0064187613
  C        20.9051017790        5.4722815580       16.2742258387
  N         8.7495247484        5.1660759447        5.1660770237
  C        10.0712776364        5.4248544096        5.4248538741
  N         6.6014509712       19.7263205418       17.5735836978
  C         6.3329785155       21.0428165911       17.2994076548
  N         6.6349278294        8.8997726737        6.7463287223
  C         6.3632705892       10.2190296374        6.4823075702
  N         6.5854630771        3.0368245373        5.1922309671
  C         6.3199541889        1.7205174868        5.4684705533
  N         6.6414270657       13.8608806540       16.0139952926
  C         6.3700916592       12.5423619595       16.2803271627
  N        15.8961483178        3.0357518638       17.5726749996
  C        16.1615563645        1.7202647553       17.2941532590
  N        15.8508331482       13.8605028704        6.7603453310
  C        16.1232058478       12.5419176567        6.4940682444
  N        15.8964148222       19.7270428666        5.1828879845
  C        16.1609078507       21.0427261163        5.4618534702
  N        15.8646164942        8.8987130691       16.0178545404
  C        16.1368824885       10.2183341935       16.2788717249
  N        17.4355978250        6.7558606391       19.7238314517
  C        17.1659665102        6.4886919431       21.0418517357
  N        17.4292776829       17.5638149256        8.9048477182
  C        17.1594823715       17.2881800494       10.2214359254
  N         5.0442772878        6.7615906571        3.0395111591
  C         5.3129413123        6.4931506373        1.7210614749
  N         5.0744411597       17.5588285114       13.8582120865
  C         5.3470332758       17.2892753202       12.5414529146
  N        17.4352254119       16.0006562790        3.0404257094
  C        17.1670183859       16.2678610651        1.7218384823
  N        17.4166060331        5.2140771780       13.8600955728
  C        17.1458803825        5.4846299271       12.5423505628
  N         5.0589239278       16.0054582197       19.7226891298
  C         5.3251721422       16.2753528271       21.0414160521
  N         5.0671715311        5.2025530083        8.9046215273
  C         5.3400763907        5.4734349142       10.2209515788
  N        17.4375046245       19.7233311128       16.0029993091
  C        17.1678527855       21.0417057947       16.2693283750
  N        17.4171621907        8.9040290100        5.2046805847
  C        17.1462005121       10.2206775436        5.4798669848
  N         5.0559234775        3.0406912872       16.0067264938
  C         5.3239603065        1.7224920540       16.2762183655
  N         5.0697638820       13.8572576683        5.2014176289
  C         5.3407514659       12.5405073698        5.4727201507
  N        17.4335130311        3.0397800870        6.7575696459
  C        17.1653135531        1.7214412561        6.4899367133
  N        17.4283255876       13.8600903495       17.5550733511
  C        17.1588103396       12.5426019564       17.2836765755
  N         5.0500645206       19.7205521143        6.7634946756
  C         5.3155017751       21.0396668211        6.4942232098
  N         5.0727365230        8.9053214343       17.5551721220
  C         5.3467463205       10.2219428240       17.2872745154
  N        19.5831040280        6.7587777833        5.2023314282
  C        20.9011327878        6.4905569012        5.4744495565
  N         8.7759067392        6.7241305096       16.0306541398
  C        10.0889532313        6.4428240156       16.3109880958
  N         2.9055167792        6.7611740854       17.5546685906
  C         1.5874810558        6.4901027091       17.2866268639
  N        13.7232200784        6.6882149481        6.6882137328
  C        12.4029803553        6.4249198292        6.4249175675
  N         2.9048626636       16.0004536765        5.2034767893
  C         1.5869815754       16.2711100554        5.4734961643
  N        13.7311870493       16.0645897597       16.0645875151
  C        12.4109090902       16.3275380943       16.3275363718
  N        19.5914085719       16.0088573209       17.5646708850
  C        20.9094894764       16.2771858201       17.2932525295
  N         8.7759073769       16.0306536743        6.7241306607
  C        10.0889538756       16.3109870777        6.4428236085
  N         6.5980859867       17.5753666366        3.0389062526
  C         6.3315254740       17.3003903119        1.7222233342
  N         6.6355074526        6.7473865047       13.8594678240
  C         6.3630902708        6.4823809807       12.5408890793
  N         6.5922082783        5.1949874602       19.7258608268
  C         6.3229789601        5.4698178945       21.0418459281
  N         6.6411527227       16.0120544374        8.9016760431
  C         6.3704557309       16.2789273251       10.2205995259
  N        15.8975958986       17.5747949727       19.7272168524
  C        16.1620862078       17.2955180250       21.0429173735
  N        15.8514638945        6.7502793259        8.8978704166
  C        16.1234805139        6.4890025107       10.2173580258
  N        15.8954974378        5.1838975363        3.0350854984
  C        16.1607295913        5.4628380793        1.7197815397
  N        15.8624452163       16.0098030508       13.8612075161
  C        16.1358270229       16.2745554603       12.5423583131
 Zn        14.5583238211       14.7684147848       14.7684132169
 Cl        13.0854121471       13.6805963376       13.6806015903
 Zn        14.6078211999        3.8600036300        3.8600062270
 Cl        13.4304345104        2.6023185630        2.6023219859
 Zn         3.7745065770       14.7129143992        3.9080315572
 Cl         2.5342244115       13.4765424472        2.6865972755
 Zn         3.7745052405        3.9080324206       14.7129144398
 Cl         2.5342229877        2.6865979696       13.4765426049
 Zn         7.9390800346        8.0246150446       14.7275070336
 Cl         9.1522039720        9.2662284953       13.4862996312
 Zn         7.8828050881       18.8798045086        3.8934084927
 Cl         9.1040867822       20.1202104508        2.6575679304
 Zn        18.7178563370        8.0516784860        3.9090030009
 Cl        19.9397268880        9.3014341337        2.6846466082
 Zn        18.7237204886       18.8502085543       14.7146432389
 Cl        19.9475208719       20.0772935053       13.4676009727
 Zn         7.9390804488       14.7275068801        8.0246153386
 Cl         9.1522036567       13.4862983765        9.2662282651
 Zn         7.8828036653        3.8934087754       18.8798044660
 Cl         9.1040828179        2.6575682682       20.1202132187
 Zn        18.7237207032       14.7146436385       18.8502025894
 Cl        19.9475209658       13.4676043537       20.0772911831
 Zn        18.7178565746        3.9090037025        8.0516793370
 Cl        19.9397261062        2.6846486590        9.3014371963
 Zn        14.5486888562        7.9865520850        7.9865509601
 Cl        13.0568330823        9.0614997978        9.0614966271
 Zn        14.6093170874       18.8912212932       18.8912211130
 Cl        13.4294574618       20.1484721423       20.1484722126
 Zn         3.7721667855        8.0568880176       18.8412654558
 Cl         2.5306133571        9.2933608405       20.0622990294
 Zn         3.7721676185       18.8412653394        8.0568878069
 Cl         2.5306144398       20.0622995657        9.2933599732
 Zn        14.5542634298       14.7773135586        8.0013049834
 Cl        13.0722641114       13.7705224463        9.1531105146
 Zn        14.6080258397        3.8639479185       18.8910359819
 Cl        13.4292392019        2.6056957497       20.1477670348
 Zn         3.7779694720       14.7129208044       18.8487510175
 Cl         2.5379669083       13.4775144965       20.0722878129
 Zn         3.7659387908        3.9126098257        8.0563117253
 Cl         2.5244387810        2.6952369624        9.2950297399
 Zn         7.9370110365        8.0214825247        8.0214833317
 Cl         9.1526873875        9.2622956856        9.2622949119
 Zn         7.8896505092       18.8754430880       18.8754429835
 Cl         9.1165791211       20.1106535429       20.1106512188
 Zn        18.7233591370        8.0492708973       18.8583060183
 Cl        19.9509988203        9.2873437532       20.0892377558
 Zn        18.7233602908       18.8583044514        8.0492694669
 Cl        19.9509993369       20.0892382941        9.2873409710
 Zn        14.5542627648        8.0013050148       14.7773136593
 Cl        13.0722631722        9.1531124891       13.7705250861
 Zn        14.6080261513       18.8910346428        3.8639460669
 Cl        13.4292399480       20.1477672686        2.6056952601
 Zn         3.7659402460        8.0563119775        3.9126096039
 Cl         2.5244381652        9.2950288389        2.6952375385
 Zn         3.7779701908       18.8487519728       14.7129202488
 Cl         2.5379682930       20.0722888312       13.4775132844
 Zn         7.9409633265       14.7287301077       14.7287302574
 Cl         9.1505054623       13.4861085246       13.4861079575
 Zn         7.8675850936        3.8863072753        3.8863074605
 Cl         9.0837678615        2.6450797339        2.6450817366
 Zn        18.7181767944       14.7123082176        3.9158821630
 Cl        19.9367467425       13.4534550445        2.6962996575
 Zn        18.7181764967        3.9158835122       14.7123089572
 Cl        19.9367451812        2.6962986282       13.4534568962
 Zn         5.8400741599        5.9715311173       16.7847218768
 Zn        16.6577201973       16.8072179728       16.8072152381
 Zn        16.6522555029        5.9541839818        5.9541841553
 Zn         5.8400748334       16.7847217160        5.9715307184
 Zn         5.8348879232        5.9689938578        5.9689941323
 Zn        16.6553138726       16.8108184894        5.9576732161
 Zn         5.8436197522       16.7855749522       16.7855744692
 Zn        16.6553131385        5.9576741747       16.8108197852
  N         3.6514565657        5.9827041974       16.7769564784
  N        14.4631034637        5.9098232068        5.9098232904
  N        18.8447620734       16.7874352955       16.7874325221
  N         8.0188474764       16.8071943710        5.9557391940
  N        18.8365851913        5.9794986291        5.9794983534
  N         8.0188469073        5.9557388648       16.8071952371
  N         3.6514578605       16.7769569449        5.9827029997
  N        14.4709245012       16.8429503338       16.8429493166
  N        16.6653184578        3.7835369653        5.9668894520
  N        16.6445464135       14.6076431473       16.7853953197
  N        16.6690324204       18.9793881163       16.7928622960
  N        16.6342681177        8.1539222362        5.9727424364
  N         5.8224202874       18.9763576128        5.9775299828
  N         5.8555400067        8.1571508792       16.7839709863
  N         5.8268185276        3.7865324155       16.7925108011
  N         5.8530983289       14.6045982391        5.9727558617
  N         5.8268210345       16.7925094268        3.7865319878
  N         5.8530973788        5.9727553001       14.6045983892
  N        16.6690337060       16.7928641706       18.9793859252
  N        16.6342691585        5.9727433973        8.1539224652
  N         5.8224186389        5.9775302016       18.9763576958
  N         5.8555404382       16.7839708373        8.1571506781
  N        16.6653187166        5.9668876415        3.7835380816
  N        16.6445457138       16.7853987307       14.6076423818
  N         5.8143769813        3.7849026143        5.9745653788
  N         5.8573653480       14.6057697865       16.7871174159
  N        16.6674848679       18.9796856865        5.9656731728
  N        16.6460963983        8.1548896555       16.7956129027
  N         5.8310337708       18.9776171316       16.7907892789
  N         5.8505367486        8.1557996372        5.9725248938
  N        16.6664399074        3.7842815738       16.7903712950
  N        16.6337636005       14.6074348335        5.9847072055
  N         3.6554055583       16.7808860615       16.7808857007
  N        14.4676441111       16.8436758299        5.9150132945
  N        18.8407962582       16.7866041847        5.9780830798
  N         8.0223070967       16.8048150819       16.8048162087
  N        18.8407949404        5.9780841563       16.7866050009
  N         8.0139154508        5.9493141863        5.9493147721
  N         3.6469766254        5.9850871031        5.9850867735
  N        14.4676434920        5.9150147307       16.8436770106
  N        16.6674830973        5.9656754326       18.9796870017
  N        16.6460973610       16.7956123420        8.1548891378
  N        16.6664404360       16.7903685060        3.7842797062
  N        16.6337607190        5.9847062301       14.6074348844
  N         5.8143792442        5.9745662186        3.7849025856
  N         5.8573651783       16.7871172520       14.6057694673
  N         5.8310325298       16.7907907600       18.9776168049
  N         5.8505373995        5.9725240121        8.1557997781
  C        11.2573749901       15.7702676131       15.7702650866
  H        11.2740785990       14.9949313046       14.9949269169
  C        11.2251335046        4.8665783810        4.8665780047
  H        11.2114997490        4.0913714191        4.0913719802
  C         0.4256612112       15.7220578221        4.9232010621
  H         0.4261712000       14.9456613915        4.1485537754
  C         0.4256598036        4.9232057634       15.7220547894
  H         0.4261694195        4.1485615562       14.9456552955
  C        11.2540700203        6.9823317170       15.7660129631
  H        11.2704437425        7.7571572016       14.9902481645
  C        11.2301249455       17.8895728653        4.8744534203
  H        11.2168786246       18.6676929625        4.1020675097
  C         0.4220855031        7.0421095063        4.9257423913
  H         0.4231180531        7.8179549105        4.1505063363
  C         0.4303323974       17.8418771833       15.7253671901
  H         0.4311413307       18.6167119487       14.9491140785
  C        11.2540705635       15.7660123641        6.9823315742
  H        11.2704444362       14.9902482619        7.7571577002
  C        11.2301244554        4.8744552225       17.8895751539
  H        11.2168785683        4.1020698193       18.6676957741
  C         0.4303316185       15.7253663575       17.8418728516
  H         0.4311397154       14.9491115227       18.6167059081
  C         0.4220856497        4.9257445788        7.0421107468
  H         0.4231183074        4.1505099705        7.8179575568
  C        11.2494429257        6.9820929399        6.9820893169
  H        11.2658574914        7.7573786748        7.7573733720
  C        11.2336298086       17.8861390898       17.8861400187
  H        11.2209047433       18.6614183102       18.6614197567
  C         0.4271056051        7.0390988033       17.8389714304
  H         0.4284684321        7.8147663060       18.6144246694
  C         0.4271062776       17.8389680575        7.0391005153
  H         0.4284689211       18.6144193951        7.8147698386
  C        15.5824590006       11.3791308684       15.7313673431
  H        14.7934929176       11.3754861831       14.9705341392
  C        15.6146179878        0.5613979244        4.9063485852
  H        14.8482028472        0.5619433187        4.1213141120
  C         4.7858581466       11.3807859816        4.9268508924
  H         4.0051412818       11.3808355490        4.1565140802
  C         4.7788222555        0.5618708915       15.7204678055
  H         4.0092780770        0.5620579259       14.9390325551
  C        15.5699232732       11.3784070939        7.0367405735
  H        14.7832757361       11.3747461051        7.7995629483
  C        15.6151461890        0.5617679120       17.8502119832
  H        14.8479050507        0.5623358473       18.6344584959
  C         4.7922746895       11.3813691809       17.8347668930
  H         4.0109262284       11.3808425495       18.6046126394
  C         4.7688231112        0.5600400433        7.0493521596
  H         3.9996621019        0.5599029081        7.8310890619
  C         6.9240076008       11.3818259160       15.7326316178
  H         7.7031730210       11.3827296305       14.9607384054
  C         6.8682230410        0.5615892685        4.9146221165
  H         7.6379721890        0.5625359887        4.1331832880
  C        17.6993152434       11.3826827236        4.9358135418
  H        18.4776926768       11.3846001857        4.1627035126
  C        17.7118144259        0.5616704023       15.7113753187
  H        18.4802954873        0.5613003545       14.9290288645
  C         6.9163194796       11.3799387497        7.0302213863
  H         7.6953342595       11.3802989869        7.8023992099
  C         6.8791186771        0.5626565425       17.8541078761
  H         7.6495024004        0.5631058902       18.6348557323
  C        17.7127227349       11.3831773135       17.8324692049
  H        18.4905691693       11.3852067306       18.6060186916
  C        17.7098327126        0.5615576988        7.0468731083
  H        18.4780796106        0.5612023813        7.8295044140
  C        15.5824632181       15.7313653599       11.3791308132
  H        14.7934974291       14.9705318886       11.3754865474
  C        15.6146206540        4.9063449108        0.5613985451
  H        14.8482079008        4.1213080995        0.5619434270
  C         4.7788245514       15.7204661394        0.5618705836
  H         4.0092805100       14.9390307501        0.5620580403
  C         4.7858572129        4.9268508452       11.3807863319
  H         4.0051395253        4.1565148626       11.3808355766
  C         6.9240068512       15.7326304568       11.3818258020
  H         7.7031721698       14.9607371690       11.3827293759
  C         6.8682220092        4.9146211873        0.5615885543
  H         7.6379708750        4.1331820590        0.5625344889
  C        17.7118170391       15.7113764513        0.5616679691
  H        18.4802976640       14.9290295990        0.5612972559
  C        17.6993132743        4.9358125317       11.3826828077
  H        18.4776898300        4.1627016407       11.3846005484
  C        15.5699241686        7.0367423434       11.3784073550
  H        14.7832779588        7.7995659851       11.3747461427
  C        15.6151518309       17.8502159567        0.5617661909
  H        14.8479122984       18.6344640668        0.5623346575
  C         4.7688215372        7.0493508381        0.5600403438
  H         3.9996597707        7.8310870419        0.5599039385
  C         4.7922743266       17.8347662022       11.3813690566
  H         4.0109260970       18.6046121349       11.3808422845
  C         6.9163202943        7.0302195939       11.3799388596
  H         7.6953356588        7.8023968631       11.3802992164
  C         6.8791200103       17.8541072409        0.5626557499
  H         7.6495033392       18.6348554461        0.5631050119
  C        17.7098304266        7.0468744920        0.5615596037
  H        18.4780760908        7.8295071149        0.5612048289
  C        17.7127278630       17.8324663096       11.3831762627
  H        18.4905752794       18.6060147855       11.3852052818
 Kr        13.6893244075       11.3619014883       11.3619020248
