     409
 i =      96, E =    -5186.5855110535
  N         3.0020422875        5.2088178884       16.0227410560
  C         1.6837501378        5.4794824730       16.2895862269
  N        13.8096736906        5.2050670119        5.2050332485
  C        12.4926402740        5.4764019638        5.4764552355
  N        19.6901135470       17.5726759029       16.0162044017
  C        21.0081627724       17.3028483940       16.2867220752
  N         8.8625854776       17.5766365701        5.2102909740
  C        10.1801190040       17.3043708203        5.4776968520
  N        19.6755125722        5.2033673456        6.7593130362
  C        20.9933174974        5.4770460337        6.4930754040
  N         8.8625878802        5.2102922220       17.5766388648
  C        10.1801138489        5.4776933500       17.3043699885
  N         2.9992267331       17.5783076192        6.7651668553
  C         1.6817680014       17.3055188813        6.4955573796
  N        13.8252320538       17.5732536659       17.5732560782
  C        12.5071613996       17.3041297577       17.3041326654
  N        15.9602887775        3.0462815428        5.2036493144
  C        16.2302475924        1.7284539492        5.4746401752
  N        15.9739255871       13.8650374374       16.0157213774
  C        16.2430716477       12.5475508247       16.2858468825
  N        15.9759568922       19.7288656198       17.5710918645
  C        16.2417893276       21.0470067527       17.2983907145
  N        15.9645328122        8.9106913729        6.7587839051
  C        16.2351106207       10.2277958355        6.4884231459
  N         6.7118444995       19.7382088840        5.2111043448
  C         6.4407252721       21.0558216556        5.4813771479
  N         6.7118935005        8.9155224310       16.0209254911
  C         6.4417857707       10.2328712220       16.2897061485
  N         6.7125787326        3.0549448119       17.5799728304
  C         6.4460285455        1.7367971550       17.3081118472
  N         6.7055276534       13.8699547748        6.7691178816
  C         6.4321831642       12.5529439938        6.5018252818
  N         5.1581700329       16.0226538744        3.0533695603
  C         5.4307969287       16.2913302235        1.7357470376
  N         5.1527885229        5.2110678024       13.8717031715
  C         5.4181419165        5.4840164430       12.5539559534
  N        17.5308470833       16.0142972913       19.7302493191
  C        17.2573513973       16.2819555368       21.0479828907
  N        17.5198716631        5.2023029659        8.9093034517
  C        17.2508164514        5.4721567317       10.2269443806
  N         5.1554564195        6.7665969909       19.7365274680
  C         5.4245660791        6.4972708021       21.0546392456
  N         5.1569858255       17.5780462823        8.9163040902
  C         5.4267843237       17.3067426964       10.2335443819
  N        17.5177171625        6.7583560227        3.0472291193
  C        17.2470702978        6.4898344461        1.7293145744
  N        17.5306710831       17.5709639479       13.8644633720
  C        17.2594810770       17.3014715408       12.5470683400
  N         5.1488954154        3.0536852868        6.7664364232
  C         5.4211713198        1.7360049926        6.4973994486
  N         5.1623757783       13.8711653553       17.5779239517
  C         5.4292662562       12.5534324531       17.3065518108
  N        17.5238071458       19.7304751070        6.7578238068
  C        17.2502065343       21.0480057547        6.4897108743
  N        17.5262275264        8.9093101039       17.5726897411
  C        17.2573274551       10.2268842467       17.3021879704
  N         5.1647164447       19.7364128182       16.0219495031
  C         5.4341473370       21.0544660447       16.2910621355
  N         5.1466171730        8.9168556102        5.2121942095
  C         5.4151966925       10.2341138290        5.4845063155
  N        17.5255143335        3.0475305145       16.0144959311
  C        17.2544583474        1.7294567034       16.2821641439
  N        17.5253777423       13.8644344824        5.2037673637
  C        17.2534280349       12.5470958301        5.4726729359
  N         3.0082562631       16.0231401539       17.5794781846
  C         1.6902308224       16.2900344535       17.3061197314
  N        13.8180741548       16.0161436845        6.7594578000
  C        12.5005578827       16.2862670920        6.4903752771
  N        19.6847816225       16.0163544609        5.2040875277
  C        21.0022610150       16.2863191015        5.4768089375
  N         8.8674563380       16.0202456361       16.0202468716
  C        10.1851748473       16.2896191942       16.2896202257
  N        19.6821439389        6.7593285272       17.5736738764
  C        21.0003622481        6.4924103519       17.3028839043
  N         8.8576347401        6.7666433755        6.7666045137
  C        10.1745259680        6.4954992348        6.4955547804
  N         2.9921175213        6.7664048403        5.2105899565
  C         1.6743776449        6.4965700540        5.4806089029
  N        13.8180720692        6.7594601281       16.0161445031
  C        12.5005611594        6.4903713873       16.2862658810
  N        15.9673803024        5.2021853865       19.7285069965
  C        16.2337549552        5.4741028385       21.0467959561
  N        15.9705092472       16.0164731511        8.9101419225
  C        16.2413347695       16.2861911347       10.2273890429
  N        15.9689425146       17.5700651605        3.0462156047
  C        16.2383221335       17.2980552992        1.7285282097
  N        15.9688714274        6.7591922976       13.8652373443
  C        16.2372373770        6.4885122482       12.5477722447
  N         6.7047730010        5.2106249912        3.0552092417
  C         6.4371218990        5.4813480967        1.7371079882
  N         6.7151413918       16.0199745275       13.8697648050
  C         6.4435990551       16.2890547938       12.5526071692
  N         6.7190704936       17.5793082760       19.7377681252
  C         6.4493703653       17.3078586946       21.0554420599
  N         6.7011969002        6.7694552865        8.9163310992
  C         6.4298577492        6.5018429974       10.2335225980
  N        19.6821431129       17.5736669346        6.7593311716
  C        21.0003633557       17.3028768373        6.4924152765
  N         8.8690886205       17.5766725286       17.5766789681
  C        10.1864110185       17.3056958275       17.3057011180
  N         2.9921209902        5.2105908418        6.7663976696
  C         1.6743776752        5.4806032900        6.4965720714
  N        13.8179057755        5.2036762017       17.5717669276
  C        12.5003629937        5.4746386818       17.3024552823
  N         3.0082519364       17.5794809611       16.0231405443
  C         1.6902378641       17.3061216136       16.2900348952
  N        13.8179019698       17.5717649618        5.2036718846
  C        12.5003664537       17.3024553702        5.4746421624
  N        19.6847811283        5.2040903570       16.0163549847
  C        21.0022612551        5.4768088482       16.2863218750
  N         8.8547131443        5.2110019940        5.2109652594
  C        10.1725889163        5.4795592930        5.4796167886
  N         6.7190718036       19.7377655618       17.5793079376
  C         6.4493706739       21.0554462973       17.3078600842
  N         6.7012050530        8.9163447792        6.7694542332
  C         6.4298460713       10.2335267370        6.5018566650
  N         6.7047663400        3.0552196136        5.2106210139
  C         6.4371366011        1.7371106439        5.4813612885
  N         6.7151388039       13.8697623241       16.0199731089
  C         6.4435954913       12.5526108166       16.2890525929
  N        15.9689424467        3.0462204157       17.5700638041
  C        16.2383172350        1.7285258129       17.2980529566
  N        15.9688675795       13.8652362191        6.7591841917
  C        16.2372455745       12.5477706369        6.4885218631
  N        15.9673818180       19.7285036601        5.2021819349
  C        16.2337471218       21.0467947287        5.4741118367
  N        15.9705052487        8.9101450869       16.0164727929
  C        16.2413303839       10.2273899400       16.2861948037
  N        17.5237966524        6.7578316398       19.7304784295
  C        17.2502089132        6.4897058054       21.0480075012
  N        17.5262262634       17.5726902172        8.9093072790
  C        17.2573303106       17.3021857251       10.2268824020
  N         5.1488866717        6.7664500836        3.0536709130
  C         5.4211537121        6.4973828037        1.7360013639
  N         5.1623759392       17.5779237825       13.8711633104
  C         5.4292682409       17.3065527573       12.5534366646
  N        17.5255167103       16.0144953771        3.0475304667
  C        17.2544632989       16.2821664311        1.7294521483
  N        17.5253849782        5.2037738449       13.8644374676
  C        17.2534212547        5.4726629905       12.5470946469
  N         5.1647150484       16.0219511285       19.7364099500
  C         5.4341465370       16.2910615333       21.0544700390
  N         5.1466174393        5.2122129053        8.9168384952
  C         5.4152063276        5.4844945163       10.2341070827
  N        17.5308444997       19.7302473254       16.0142974955
  C        17.2573468116       21.0479879561       16.2819526175
  N        17.5198728233        8.9093140549        5.2022893902
  C        17.2508256817       10.2269484335        5.4721681695
  N         5.1581693571        3.0533758633       16.0226593847
  C         5.4307957546        1.7357428147       16.2913338180
  N         5.1527998123       13.8717015236        5.2110592752
  C         5.4181362694       12.5539617822        5.4840257209
  N        17.5177125517        3.0472394500        6.7583477551
  C        17.2470646718        1.7293152274        6.4898448693
  N        17.5306681158       13.8644629599       17.5709641946
  C        17.2594753788       12.5470716860       17.3014741109
  N         5.1554507233       19.7365247595        6.7665934597
  C         5.4245785420       21.0546411958        6.4972862706
  N         5.1569835864        8.9163087099       17.5780489880
  C         5.4267828879       10.2335401184       17.3067421865
  N        19.6755138235        6.7593167577        5.2033671137
  C        20.9933178369        6.4930726228        5.4770511265
  N         8.8631134747        6.7637702283       16.0180061347
  C        10.1803930808        6.4924474222       16.2871005312
  N         2.9992253824        6.7651672361       17.5783112134
  C         1.6817682488        6.4955549151       17.3055251413
  N        13.8122250341        6.7610278935        6.7609950302
  C        12.4944754014        6.4924223074        6.4924741156
  N         3.0020424008       16.0227434556        5.2088123656
  C         1.6837515297       16.2895844423        5.4794808580
  N        13.8229171963       16.0174430232       16.0174376650
  C        12.5057272222       16.2881709504       16.2881686191
  N        19.6901178882       16.0162018278       17.5726744753
  C        21.0081551428       16.2867219106       17.3028459360
  N         8.8631168087       16.0180035910        6.7637697564
  C        10.1803885536       16.2871014185        6.4924514479
  N         6.7125836668       17.5799681044        3.0549451401
  C         6.4460304050       17.3081070726        1.7367903776
  N         6.7055221982        6.7691267200       13.8699545393
  C         6.4321924056        6.5018154031       12.5529428944
  N         6.7118501621        5.2111144065       19.7382122134
  C         6.4407140605        5.4813655657       21.0558216161
  N         6.7118942146       16.0209268094        8.9155227508
  C         6.4417886933       16.2897077778       10.2328663483
  N        15.9759599586       17.5710909571       19.7288634345
  C        16.2417940830       17.2983932579       21.0470093375
  N        15.9645403424        6.7587841934        8.9106819126
  C        16.2351006522        6.4884120208       10.2277953476
  N        15.9602900403        5.2036393440        3.0462750301
  C        16.2302580059        5.4746260151        1.7284526596
  N        15.9739296887       16.0157184898       13.8650354197
  C        16.2430784212       16.2858428230       12.5475507069
 Zn        14.6781499656       14.7231244673       14.7231226147
 Cl        13.4458829658       13.4909592003       13.4909615530
 Zn        14.6680936363        3.9096043603        3.9096028068
 Cl        13.4282921291        2.6812339156        2.6812425235
 Zn         3.8641250597       14.7303945178        3.9139313290
 Cl         2.6310726856       13.4955269275        2.6848899625
 Zn         3.8641203647        3.9139334396       14.7303933864
 Cl         2.6310716943        2.6848884347       13.4955276367
 Zn         8.0034262722        8.0577182534       14.7244843457
 Cl         9.2311647000        9.2913841581       13.4891880730
 Zn         8.0031939990       18.8740019106        3.9192970069
 Cl         9.2414002420       20.1009716123        2.6873348606
 Zn        18.8138043624        8.0500376017        3.9075846032
 Cl        20.0428087914        9.2855798278        2.6755456634
 Zn        18.8241827873       18.8663095089       14.7233823167
 Cl        20.0545837579       20.0937706530       13.4843319078
 Zn         8.0034263735       14.7244870509        8.0577162030
 Cl         9.2311636741       13.4891861086        9.2913806550
 Zn         8.0031913396        3.9193004273       18.8740010829
 Cl         9.2413967281        2.6873367384       20.1009734291
 Zn        18.8241816998       14.7233841966       18.8663049642
 Cl        20.0545836658       13.4843348538       20.0937675466
 Zn        18.8138050817        3.9075872876        8.0500358509
 Cl        20.0428103287        2.6755470615        9.2855854410
 Zn        14.6710828402        8.0542159303        8.0542117166
 Cl        13.4405281761        9.2872369400        9.2872408643
 Zn        14.6873633467       18.8672721378       18.8672726850
 Cl        13.4501864808       20.0972655286       20.0972666826
 Zn         3.8618837653        8.0569858900       18.8722001375
 Cl         2.6334793527        9.2960404947       20.1015492741
 Zn         3.8618819426       18.8722007457        8.0569859116
 Cl         2.6334782662       20.1015476307        9.2960419407
 Zn        14.6747660421       14.7229016018        8.0535096582
 Cl        13.4432053753       13.4906609305        9.2863121359
 Zn        14.6759665849        3.9075366153       18.8648277894
 Cl        13.4387912140        2.6772824909       20.0940471025
 Zn         3.8739599031       14.7297579871       18.8733591632
 Cl         2.6406219723       13.4949959277       20.1027118106
 Zn         3.8537534797        3.9163264052        8.0571345511
 Cl         2.6245661646        2.6867414661        9.2951558058
 Zn         7.9988377481        8.0592022588        8.0591946669
 Cl         9.2225627387        9.2957008675        9.2957016213
 Zn         8.0088179761       18.8723681413       18.8723705820
 Cl         9.2509147663       20.0998004611       20.0997994693
 Zn        18.8184197606        8.0501434694       18.8692636721
 Cl        20.0500200227        9.2865793845       20.0978679947
 Zn        18.8184226135       18.8692629380        8.0501421594
 Cl        20.0500207514       20.0978688887        9.2865777374
 Zn        14.6747637595        8.0535106177       14.7229020217
 Cl        13.4432054026        9.2863135360       13.4906618024
 Zn        14.6759675292       18.8648245306        3.9075346606
 Cl        13.4387943228       20.0940469286        2.6772834604
 Zn         3.8537531482        8.0571405967        3.9163250019
 Cl         2.6245617332        9.2951521204        2.6867451906
 Zn         3.8739631753       18.8733569447       14.7297607319
 Cl         2.6406268833       20.1027092867       13.4949971386
 Zn         8.0071235018       14.7255321919       14.7255344023
 Cl         9.2366126875       13.4918763388       13.4918774384
 Zn         7.9968682928        3.9176252622        3.9176138019
 Cl         9.2323499188        2.6867862145        2.6867885688
 Zn        18.8206814682       14.7235895295        3.9101338400
 Cl        20.0482503697       13.4853631033        2.6792484478
 Zn        18.8206804638        3.9101342908       14.7235910019
 Cl        20.0482471234        2.6792475892       13.4853643724
 Zn         5.9372023910        5.9912240142       16.8054754296
 Zn        16.7602654327       16.7925214116       16.7925207484
 Zn        16.7393525830        5.9809347808        5.9808994643
 Zn         5.9372024799       16.8054690653        5.9912181431
 Zn         5.9254427830        5.9920369144        5.9920077765
 Zn        16.7534009032       16.7932033333        5.9809481409
 Zn         5.9434528051       16.8053040034       16.8053078777
 Zn        16.7534023232        5.9809585488       16.7932099059
  N         3.7472564402        5.9866249333       16.8021820637
  N        14.5573278231        5.9824401838        5.9823342023
  N        18.9438437747       16.7942518979       16.7942503958
  N         8.1165502116       16.7983383292        5.9881219491
  N        18.9288126123        5.9792733303        5.9792780673
  N         8.1165499413        5.9881286608       16.7983522666
  N         3.7472569915       16.8021841931        5.9866109810
  N        14.5708121388       16.7948866448       16.7948837292
  N        16.7393513046        3.7933374330        5.9803227662
  N        16.7528837958       14.6111260342       16.7931247985
  N        16.7555553027       18.9828066753       16.7942478632
  N        16.7418229755        8.1635238153        5.9806676546
  N         5.9342059600       18.9908516867        5.9886664207
  N         5.9347267126        8.1696598672       16.8001624832
  N         5.9337613072        3.8008301687       16.8022992650
  N         5.9315316561       14.6176219118        5.9885532203
  N         5.9337595909       16.8022906016        3.8008294868
  N         5.9315144677        5.9885723092       14.6176236109
  N        16.7555553832       16.7942476997       18.9828072838
  N        16.7418555778        5.9806989666        8.1635219688
  N         5.9342287992        5.9886860227       18.9908557544
  N         5.9347264329       16.8001587852        8.1696597777
  N        16.7393281722        5.9803391533        3.7933370712
  N        16.7528854140       16.7931246905       14.6111261360
  N         5.9256037216        3.8011392946        5.9880437549
  N         5.9400879328       14.6172710182       16.7996915456
  N        16.7476456194       18.9828155701        5.9788704349
  N        16.7479471389        8.1632781444       16.7947548280
  N         5.9418674386       18.9905524150       16.8013035534
  N         5.9248649606        8.1703267795        5.9896055833
  N        16.7479089180        3.7934505015       16.7935256380
  N        16.7481054634       14.6112378271        5.9819924414
  N         3.7546644798       16.8031060223       16.8031064380
  N        14.5647198244       16.7937288015        5.9811432545
  N        18.9370842702       16.7953800389        5.9802120589
  N         8.1221346182       16.7989389116       16.7989430823
  N        18.9370836828        5.9802199778       16.7953771571
  N         8.1095626459        5.9894383015        5.9893167636
  N         3.7387051499        5.9883888459        5.9883939615
  N        14.5647198569        5.9811475962       16.7937412662
  N        16.7476338121        5.9788857290       18.9828195655
  N        16.7479393335       16.7947554319        8.1632764646
  N        16.7479098720       16.7935207551        3.7934490652
  N        16.7481279784        5.9820103122       14.6112406754
  N         5.9256350950        5.9880758363        3.8011372736
  N         5.9400894474       16.7996903711       14.6172713785
  N         5.9418642940       16.8013043355       18.9905525212
  N         5.9248288578        5.9896397849        8.1703212137
  C        11.3448106655       15.7383834728       15.7383798937
  H        11.3438752128       14.9627777854       14.9627694888
  C        11.3311402992        4.9274063587        4.9275325532
  H        11.3287699487        4.1519216665        4.1519218793
  C         0.5243900391       15.7369577716        4.9286907527
  H         0.5269622523       14.9608612997        4.1536965140
  C         0.5243898428        4.9286896136       15.7369610892
  H         0.5269621858        4.1537076850       14.9608518435
  C        11.3407638910        7.0415325724       15.7355863645
  H        11.3412274747        7.8167785728       14.9596395813
  C        11.3400028460       17.8541002165        4.9258963230
  H        11.3394189642       18.6300599496        4.1507747445
  C         0.5138962530        7.0459877524        4.9293380037
  H         0.5142382460        7.8221897387        4.1544419070
  C         0.5292368191       17.8540564094       15.7378158956
  H         0.5293626305       18.6293497429       14.9620242065
  C        11.3407631903       15.7355939498        7.0415408385
  H        11.3412271927       14.9596378985        7.8167778801
  C        11.3400034486        4.9258891617       17.8540940573
  H        11.3394187642        4.1507778039       18.6300643349
  C         0.5292360928       15.7378136869       17.8540534285
  H         0.5293612983       14.9620198564       18.6293453621
  C         0.5138971138        4.9293338648        7.0459856660
  H         0.5142381834        4.1544346479        7.8221867266
  C        11.3358506535        7.0445984809        7.0447220739
  H        11.3381826846        7.8202544569        7.8202521216
  C        11.3475365294       17.8552420412       17.8552491409
  H        11.3484500648       18.6307591944       18.6307698950
  C         0.5198100760        7.0447989347       17.8538489431
  H         0.5176030049        7.8207267401       18.6290161662
  C         0.5198093355       17.8538356260        7.0448104538
  H         0.5176035804       18.6290074385        7.8207342138
  C        15.6915689092       11.3877784688       15.7354115366
  H        14.9160149036       11.3882519499       14.9597522026
  C        15.6807050509        0.5669627469        4.9252349515
  H        14.9041708679        0.5659448720        4.1506698911
  C         4.8663431972       11.3946135164        4.9333703811
  H         4.0923192155       11.3953830385        4.1563388984
  C         4.8829273156        0.5744328818       15.7401104496
  H         4.1077878062        0.5731674225       14.9641036324
  C        15.6854362184       11.3882321638        7.0390235169
  H        14.9099610224       11.3888707000        7.8147551250
  C        15.6890562848        0.5670623592       17.8476926843
  H        14.9131993804        0.5659259432       18.6229573767
  C         4.8778506244       11.3941288825       17.8576461018
  H         4.1033585661       11.3949867271       18.6342222600
  C         4.8730168729        0.5745610425        7.0479892680
  H         4.0979800163        0.5731712923        7.8240374597
  C         6.9923652357       11.3922096336       15.7375775874
  H         7.7671245446       11.3913061973       14.9611076314
  C         6.9894739454        0.5772959746        4.9313256722
  H         7.7651823307        0.5787585727        4.1559269137
  C        17.8024120644       11.3865301364        4.9216851752
  H        18.5777463680       11.3858009902        4.1459490939
  C        17.8051461764        0.5694250682       15.7308640845
  H        18.5800505278        0.5707944078       14.9546799809
  C         6.9798627256       11.3927261444        7.0545923801
  H         7.7541699826       11.3917395997        7.8314911977
  C         6.9981992426        0.5768468309       17.8579816027
  H         7.7738565149        0.5781212427       18.6333833895
  C        17.8091424523       11.3866292737       17.8520608863
  H        18.5851640671       11.3861245410       18.6271126312
  C        17.7985097416        0.5693542902        7.0403406718
  H        18.5741239276        0.5707176107        7.8158260610
  C        15.6915777178       15.7354055655       11.3877773723
  H        14.9160233722       14.9597467583       11.3882520189
  C        15.6807288851        4.9252098904        0.5669659933
  H        14.9041808887        4.1506577597        0.5659467349
  C         4.8829271714       15.7401093257        0.5744334075
  H         4.1077866922       14.9641031799        0.5731681480
  C         4.8663664268        4.9333444270       11.3946114551
  H         4.0923086221        4.1563450953       11.3953850786
  C         6.9923698450       15.7375812105       11.3922092673
  H         7.7671300721       14.9611121671       11.3913061625
  C         6.9894436751        4.9312989545        0.5772988084
  H         7.7651825623        4.1559300340        0.5787616877
  C        17.8051528566       15.7308683361        0.5694246477
  H        18.5800575772       14.9546843356        0.5707938949
  C        17.8023883466        4.9216598652       11.3865314274
  H        18.5777520449        4.1459521920       11.3858062058
  C        15.6854103335        7.0389983542       11.3882339013
  H        14.9099631158        7.8147570774       11.3888718920
  C        15.6890627037       17.8476967514        0.5670619048
  H        14.9132057595       18.6229611800        0.5659265792
  C         4.8729819936        7.0479546511        0.5745609399
  H         4.0979714847        7.8240279361        0.5731742791
  C         4.8778521879       17.8576464940       11.3941299543
  H         4.1033588354       18.6342208249       11.3949885934
  C         6.9798925280        7.0545632744       11.3927265486
  H         7.7541705029        7.8314902277       11.3917383560
  C         6.9982012312       17.8579789816        0.5768456566
  H         7.7738594383       18.6333801229        0.5781213671
  C        17.7985225214        7.0403244681        0.5693562789
  H        18.5741151185        7.8158303657        0.5707247041
  C        17.8091485441       17.8520577549       11.3866282063
  H        18.5851679671       18.6271118522       11.3861232319
 Kr         4.4248574741       10.5827085717       10.5827085549
