     409
 i =      96, E =    -5186.5734231751
  N         2.9375294427        5.2019812695       16.0088458776
  C         1.6193925930        5.4727625799       16.2754191052
  N        13.7668446149        5.1662927809        5.1662979516
  C        12.4451398290        5.4257752370        5.4257780651
  N        19.6225280394       17.5565612916       16.0014689807
  C        20.9402192234       17.2895601217       16.2736681440
  N         8.8080830828       17.6241689159        5.1454247037
  C        10.1241683965       17.3453648546        5.4174016493
  N        19.6185946143        5.2042337926        6.7601141164
  C        20.9361704864        5.4756290941        6.4916044121
  N         8.8080802992        5.1454255261       17.6241672316
  C        10.1241673445        5.4174027118       17.3453629281
  N         2.9349431925       17.5659223320        6.7567716625
  C         1.6177869135       17.2920245670        6.4881348788
  N        13.7713446202       17.5858263139       17.5858216776
  C        12.4496652964       17.3261090271       17.3261069288
  N        15.9330919615        3.0342213135        5.1908863249
  C        16.1988533502        1.7177928051        5.4673178775
  N        15.8911570151       13.8583366417       16.0121572283
  C        16.1612713143       12.5397042985       16.2785820139
  N        15.9313869517       19.7230022449       17.5671514797
  C        16.1976142729       21.0397142595       17.2918684329
  N        15.8880297116        8.8973918293        6.7409064529
  C        16.1593164214       10.2166355553        6.4763891760
  N         6.6222879431       19.7303988014        5.1892181625
  C         6.3569570765       21.0459666091        5.4670335728
  N         6.6516369285        8.9003931071       16.0257442705
  C         6.3822399913       10.2207212837       16.2873245397
  N         6.6270749094        3.0397516218       17.5771334730
  C         6.3632956342        1.7238323615       17.2990821859
  N         6.6641927995       13.8630889729        6.7577531059
  C         6.3917291294       12.5440532191        6.4925228087
  N         5.0869190139       16.0061058471        3.0424234203
  C         5.3571240755       16.2734797634        1.7244859885
  N         5.1002330525        5.2103409601       13.8625534035
  C         5.3697749516        5.4823285796       12.5449754705
  N        17.4742100324       15.9991493987       19.7200432211
  C        17.2056517994       16.2680273488       21.0386967336
  N        17.4557328484        5.1972579397        8.9015309444
  C        17.1827091459        5.4677457770       10.2179414636
  N         5.0813515687        6.7599309788       19.7268948643
  C         5.3508670456        6.4927840840       21.0447461766
  N         5.0879694139       17.5721731058        8.9082026987
  C         5.3601788014       17.2972080132       10.2244253652
  N        17.4750175203        6.7598620300        3.0375037940
  C        17.2061045725        6.4918148556        1.7190478700
  N        17.4590056725       17.5561829397       13.8551611834
  C        17.1847802727       17.2870862858       12.5385295400
  N         5.0804202935        3.0418151729        6.7601426907
  C         5.3500378085        1.7238057895        6.4932821645
  N         5.0938692852       13.8630291838       17.5664074712
  C         5.3631752191       12.5457009307       17.2940382408
  N        17.4743260384       19.7187766384        6.7623054704
  C        17.2062108528       21.0375517547        6.4933180332
  N        17.4558257215        8.9022390770       17.5549731576
  C        17.1825887507       10.2188922560       17.2861688222
  N         5.0882105354       19.7270139130       16.0082125572
  C         5.3581129354       21.0450072154       16.2748607317
  N         5.0944044374        8.9071904051        5.2025050705
  C         5.3669548369       10.2233540198        5.4781568455
  N        17.4735926619        3.0385287534       16.0004883166
  C        17.2048756465        1.7201646674       16.2690076518
  N        17.4590036345       13.8542199546        5.1980022103
  C        17.1849853585       12.5376345576        5.4678226919
  N         2.9383267778       16.0126076948       17.5683126550
  C         1.6206780313       16.2790984625       17.2950429462
  N        13.7476285613       16.0267197371        6.7229046335
  C        12.4340717196       16.3081824104        6.4431857068
  N        19.6214591292       15.9996278147        5.2028365116
  C        20.9387723157       16.2707790797        5.4732264343
  N         8.7951741774       16.0653976487       16.0654048522
  C        10.1161764299       16.3272398886       16.3272459771
  N        19.6192777501        6.7590771309       17.5542300053
  C        20.9372711533        6.4893015206       17.2865390912
  N         8.7923965857        6.6882094808        6.6882032667
  C        10.1129870662        6.4255788366        6.4255736640
  N         2.9343792642        6.7600444436        5.2038956478
  C         1.6167776773        6.4914431502        5.4754131241
  N        13.7476258377        6.7229056350       16.0267203935
  C        12.4340677184        6.4431863817       16.3081828333
  N        15.9326541681        5.1933802180       19.7224064589
  C        16.1989588621        5.4687431667       21.0388485324
  N        15.8877313210       16.0116166048        8.8990521033
  C        16.1588955357       16.2778347928       10.2179928350
  N        15.9299755727       17.5679540679        3.0359539457
  C        16.1966253758       17.2925591099        1.7192429305
  N        15.8918927738        6.7427160022       13.8572741550
  C        16.1619159732        6.4767894025       12.5385056024
  N         6.6190083513        5.1871789469        3.0377310315
  C         6.3551413476        5.4667043329        1.7224520525
  N         6.6571861283       16.0188704446       13.8643852115
  C         6.3849687008       16.2836927620       12.5450882286
  N         6.6303634251       17.5777621714       19.7306859976
  C         6.3650536601       17.2998280430       21.0465111200
  N         6.6597325164        6.7476559116        8.8987708180
  C         6.3895892351        6.4874651728       10.2190948025
  N        19.6192805082       17.5542294541        6.7590761634
  C        20.9372748199       17.2865383413        6.4893003785
  N         8.8114109968       17.6193060632       17.6193024898
  C        10.1271472027       17.3431337493       17.3431326984
  N         2.9343781131        5.2038973388        6.7600422785
  C         1.6167712896        5.4754156197        6.4914403810
  N        13.7683733504        5.1724692629       17.5884362802
  C        12.4468001554        5.4313780187       17.3274852078
  N         2.9383263973       17.5683139285       16.0126069472
  C         1.6206765387       17.2950435206       16.2790981865
  N        13.7683762187       17.5884363266        5.1724689499
  C        12.4468020177       17.3274852307        5.4313778417
  N        19.6214578969        5.2028375441       15.9996286855
  C        20.9387725163        5.4732273808       16.2707798082
  N         8.8060356132        5.1344107873        5.1344162098
  C        10.1223294697        5.4096834743        5.4096860723
  N         6.6303615854       19.7306885071       17.5777624541
  C         6.3650509073       21.0465125804       17.2998291081
  N         6.6597323102        8.8987750724        6.7476577932
  C         6.3895817331       10.2190987986        6.4874715068
  N         6.6190067928        3.0377318935        5.1871785252
  C         6.3551408786        1.7224535984        5.4667028707
  N         6.6571873663       13.8643829224       16.0188684382
  C         6.3849695691       12.5450855271       16.2836928381
  N        15.9299742269        3.0359541867       17.5679545202
  C        16.1966243045        1.7192436975       17.2925598518
  N        15.8918942313       13.8572738987        6.7427157983
  C        16.1619170918       12.5385054179        6.4767894121
  N        15.9326554718       19.7224054585        5.1933796339
  C        16.1989601241       21.0388475279        5.4687434431
  N        15.8877302136        8.8990526151       16.0116173637
  C        16.1588946996       10.2179938141       16.2778353699
  N        17.4743246904        6.7623056122       19.7187775099
  C        17.2062095040        6.4933175818       21.0375520987
  N        17.4558270427       17.5549724027        8.9022386897
  C        17.1825896279       17.2861682778       10.2188921534
  N         5.0804208204        6.7601430233        3.0418165799
  C         5.3500380943        6.4932831006        1.7238112534
  N         5.0938680510       17.5664098724       13.8630278251
  C         5.3631744672       17.2940383228       12.5456986050
  N        17.4735938558       16.0004876976        3.0385282401
  C        17.2048766764       16.2690069846        1.7201646986
  N        17.4590023973        5.1980024224       13.8542200130
  C        17.1849845049        5.4678227026       12.5376339241
  N         5.0882123392       16.0082123617       19.7270110934
  C         5.3581157723       16.2748599742       21.0450024013
  N         5.0944065702        5.2025023976        8.9071887923
  C         5.3669626726        5.4781494467       10.2233568263
  N        17.4742101230       19.7200438587       15.9991493240
  C        17.2056515962       21.0386969898       16.2680274685
  N        17.4557333875        8.9015304100        5.1972578635
  C        17.1827096740       10.2179424152        5.4677462300
  N         5.0869153358        3.0424260672       16.0061037686
  C         5.3571196140        1.7244921348       16.2734785450
  N         5.1002348548       13.8625560486        5.2103416545
  C         5.3697692101       12.5449740737        5.4823357252
  N        17.4750179534        3.0375026332        6.7598629070
  C        17.2061057174        1.7190480393        6.4918161951
  N        17.4590054145       13.8551618174       17.5561826505
  C        17.1847797910       12.5385299635       17.2870861975
  N         5.0813541738       19.7268932911        6.7599298190
  C         5.3508678650       21.0447422732        6.4927832753
  N         5.0879669494        8.9082040431       17.5721758312
  C         5.3601788085       10.2244284732       17.2972094074
  N        19.6185951730        6.7601140381        5.2042340808
  C        20.9361744111        6.4916037806        5.4756299454
  N         8.7934685641        6.6930466799       16.0640414611
  C        10.1142143252        6.4294593269       16.3256278851
  N         2.9349400787        6.7567728303       17.5659250115
  C         1.6177818305        6.4881347468       17.2920250050
  N        13.7460202881        6.7218002983        6.7217959025
  C        12.4325249664        6.4412249149        6.4412206595
  N         2.9375317443       16.0088450216        5.2019807136
  C         1.6193914034       16.2754189195        5.4727625634
  N        13.7494350192       16.0292507233       16.0292537313
  C        12.4360937712       16.3104554061       16.3104593117
  N        19.6225282247       16.0014691948       17.5565607834
  C        20.9402198033       16.2736686184       17.2895594911
  N         8.7934718613       16.0640435225        6.6930453070
  C        10.1142194336       16.3256294863        6.4294580579
  N         6.6270779256       17.5771342838        3.0397494294
  C         6.3633000402       17.2990833621        1.7238319851
  N         6.6641920929        6.7577549798       13.8630854056
  C         6.3917340432        6.4925163570       12.5440506973
  N         6.6222858999        5.1892196072       19.7303979157
  C         6.3569568008        5.4670343958       21.0459665848
  N         6.6516386544       16.0257426188        8.9003947806
  C         6.3822400046       16.2873233089       10.2207246929
  N        15.9313860244       17.5671505717       19.7230018901
  C        16.1976140545       17.2918679044       21.0397137670
  N        15.8880284633        6.7409060266        8.8973919148
  C        16.1593157587        6.4763885408       10.2166361213
  N        15.9330909171        5.1908860676        3.0342225627
  C        16.1988518506        5.4673169202        1.7177943018
  N        15.8911568702       16.0121575626       13.8583361083
  C        16.1612716650       16.2785820786       12.5397036340
 Zn        14.5958538164       14.7266688156       14.7266686036
 Cl        13.3779959624       13.4875391518       13.4875406026
 Zn        14.6509551988        3.8860859238        3.8860864495
 Cl        13.4301651241        2.6469117834        2.6469127687
 Zn         3.8001985544       14.7156864528        3.9121034226
 Cl         2.5815089733       13.4608811853        2.6893467630
 Zn         3.8001973613        3.9121081594       14.7156886061
 Cl         2.5815077371        2.6893481423       13.4608842365
 Zn         7.9535612893        7.9989177064       14.7835491308
 Cl         9.4006601523        9.1707532070       13.7583702192
 Zn         7.9100781223       18.8966332427        3.8728074475
 Cl         9.0895123105       20.1552988346        2.6160462864
 Zn        18.7602179373        8.0531888480        3.9081398469
 Cl        19.9969642185        9.2911736446        2.6862510613
 Zn        18.7610705044       18.8441072446       14.7099313897
 Cl        19.9963060940       20.0674290405       13.4702467565
 Zn         7.9535643359       14.7835465867        7.9989172231
 Cl         9.4006640601       13.7583674160        9.1707511816
 Zn         7.9100760137        3.8728107980       18.8966340114
 Cl         9.0895083139        2.6160470107       20.1552985320
 Zn        18.7610706761       14.7099315831       18.8441063662
 Cl        19.9963062937       13.4702469440       20.0674281075
 Zn        18.7602175739        3.9081413138        8.0531880688
 Cl        19.9969631969        2.6862515954        9.2911743655
 Zn        14.5926851723        8.0200202523        8.0200187886
 Cl        13.3719072070        9.2589563293        9.2589539455
 Zn        14.6498370761       18.8727456939       18.8727452114
 Cl        13.4226416575       20.1082012950       20.1082017450
 Zn         3.7904713054        8.0518456553       18.8629872742
 Cl         2.5611428896        9.2899027847       20.0915799804
 Zn         3.7904736125       18.8629815496        8.0518439501
 Cl         2.5611459753       20.0915776659        9.2899006892
 Zn        14.5947155439       14.7256074991        8.0224432799
 Cl        13.3748553541       13.4878320858        9.2621951609
 Zn        14.6490689066        3.8906956028       18.8748512367
 Cl        13.4240302238        2.6516057291       20.1092658748
 Zn         3.7966830865       14.7187069359       18.8608714682
 Cl         2.5728632749       13.4748404739       20.0896840329
 Zn         3.7935640515        3.9089500898        8.0538876234
 Cl         2.5697803861        2.6865882848        9.3034080013
 Zn         7.9563865467        7.9805527916        7.9805555728
 Cl         9.4103115744        9.0771488755        9.0771854118
 Zn         7.9169171947       18.8928853515       18.8928821949
 Cl         9.1019208600       20.1480706590       20.1480710299
 Zn        18.7594072480        8.0545596876       18.8416222596
 Cl        19.9949763725        9.2906415024       20.0678357652
 Zn        18.7594089631       18.8416217224        8.0545594073
 Cl        19.9949776011       20.0678350091        9.2906409947
 Zn        14.5947139844        8.0224437907       14.7256069386
 Cl        13.3748550607        9.2621963459       13.4878316587
 Zn        14.6490705754       18.8748515474        3.8906953582
 Cl        13.4240302134       20.1092644137        2.6516059465
 Zn         3.7935667896        8.0538845200        3.9089544738
 Cl         2.5697835754        9.3034072084        2.6865911225
 Zn         3.7966816569       18.8608754888       14.7187048762
 Cl         2.5728616141       20.0896866570       13.4748391708
 Zn         7.9520188197       14.7735558789       14.7735539354
 Cl         9.3909401129       13.6672509513       13.6672175972
 Zn         7.9037252337        3.8612158970        3.8612211041
 Cl         9.0774603293        2.6016950532        2.6016954621
 Zn        18.7612387874       14.7104638384        3.9074794673
 Cl        19.9972734419       13.4695795538        2.6872753786
 Zn        18.7612381997        3.9074790736       14.7104630723
 Cl        19.9972736407        2.6872751292       13.4695808873
 Zn         5.8671145546        5.9595221522       16.8142328164
 Zn        16.6842848063       16.7823002442       16.7822998386
 Zn        16.6845790838        5.9651926870        5.9651939100
 Zn         5.8671235123       16.8142339744        5.9595207318
 Zn         5.8626864038        5.9551896389        5.9551882636
 Zn        16.6834846235       16.7818211148        5.9673363715
 Zn         5.8726695991       16.8116374045       16.8116359649
 Zn        16.6834817281        5.9673370580       16.7818222122
  N         3.6828517802        5.9787818422       16.7892552911
  N        14.5028192422        5.9493107944        5.9493117672
  N        18.8756632035       16.7775334460       16.7775327656
  N         8.0545725625       16.8474371484        5.9187496029
  N        18.8721212922        5.9813561513        5.9813594518
  N         8.0545682339        5.9187526583       16.8474333674
  N         3.6828538766       16.7892572000        5.9787850026
  N        14.5064989126       16.8021404974       16.8021387509
  N        16.7046292984        3.7824307471        5.9728155636
  N        16.6760860587       14.6029883664       16.7846871514
  N        16.7030612633       18.9746182103       16.7851973725
  N        16.6724758826        8.1530165284        5.9675314654
  N         5.8506798003       18.9828247396        5.9711124644
  N         5.8695226133        8.1575031157       16.8030814960
  N         5.8553186937        3.7871759575       16.7952332306
  N         5.8828778553       14.6099180993        5.9810296917
  N         5.8553249855       16.7952385211        3.7871730765
  N         5.8828712034        5.9810331827       14.6099153687
  N        16.7030603447       16.7851971311       18.9746178327
  N        16.6724765905        5.9675298822        8.1530174177
  N         5.8506774727        5.9711130036       18.9828231596
  N         5.8695230258       16.8030818635        8.1575045134
  N        16.7046273160        5.9728136104        3.7824324661
  N        16.6760862529       16.7846877859       14.6029878400
  N         5.8482097923        3.7858193371        5.9694801091
  N         5.8764510470       14.6106841844       16.7954998992
  N        16.7035406593       18.9737093686        5.9756910786
  N        16.6726808572        8.1542086891       16.7839977605
  N         5.8580010940       18.9829347786       16.7965625369
  N         5.8767610389        8.1561026532        5.9699064212
  N        16.7021276904        3.7838350175       16.7862043101
  N        16.6761567210       14.6019585848        5.9694933570
  N         3.6851629688       16.7921463382       16.7921468129
  N        14.5042156928       16.8025009949        5.9529543099
  N        18.8736593059       16.7760617214        5.9808806908
  N         8.0571902594       16.8446941362       16.8446953272
  N        18.8736575956        5.9808820211       16.7760627910
  N         8.0528566800        5.9096624111        5.9096629411
  N         3.6808785593        5.9810887573        5.9810809941
  N        14.5042125881        5.9529542625       16.8025022029
  N        16.7035389909        5.9756914555       18.9737110001
  N        16.6726818005       16.7839964615        8.1542080036
  N        16.7021297890       16.7862031485        3.7838347393
  N        16.6761552744        5.9694935429       14.6019591367
  N         5.8482080055        5.9694829814        3.7858180559
  N         5.8764506112       16.7955022726       14.6106851895
  N         5.8580013264       16.7965618538       18.9829325876
  N         5.8767610235        5.9699106501        8.1560987102
  C        11.2691563443       15.7690817133       15.7690915018
  H        11.2517577222       14.9937481691       14.9937634688
  C        11.2912233913        4.8674758117        4.8674818638
  H        11.3050754210        4.0922501717        4.0922601302
  C         0.4600228813       15.7220275865        4.9231584998
  H         0.4606577399       14.9455538735        4.1485457295
  C         0.4600232577        4.9231602844       15.7220292709
  H         0.4606572588        4.1485481034       14.9455560580
  C        11.2677767794        6.9837231279       15.7648836001
  H        11.2514817326        7.7585560042       14.9891038786
  C        11.2928796712       17.8884782986        4.8758845548
  H        11.3063167765       18.6665361801        4.1034180618
  C         0.4564314322        7.0424755599        4.9256134551
  H         0.4558529842        7.8184321525        4.1504417348
  C         0.4604296292       17.8424878281       15.7255589958
  H         0.4598107028       18.6174385049       14.9493785215
  C        11.2677807131       15.7648831999        6.9837225144
  H        11.2514843532       14.9891027802        7.7585552463
  C        11.2928776774        4.8758844698       17.8884777239
  H        11.3063129276        4.1034174050       18.6665357575
  C         0.4604307616       15.7255601488       17.8424863073
  H         0.4598115736       14.9493798382       18.6174368091
  C         0.4564273749        4.9256122946        7.0424761609
  H         0.4558527863        4.1504397569        7.8184332664
  C        11.2664650941        6.9831312334        6.9831209369
  H        11.2502571594        7.7584481357        7.7584306334
  C        11.2962605006       17.8848834908       17.8848787349
  H        11.3100164452       18.6601654804       18.6601564447
  C         0.4565144141        7.0393472848       17.8396074451
  H         0.4546782653        7.8149704123       18.6151570252
  C         0.4565189098       17.8396057518        7.0393454939
  H         0.4546814268       18.6151550556        7.8149679605
  C        15.6059630584       11.3794938925       15.7313868877
  H        14.8262136800       11.3809196060       14.9599763085
  C        15.6518919862        0.5580094760        4.9136439963
  H        14.8822163409        0.5578050428        4.1320653959
  C         4.8152987007       11.3857629383        4.9338433039
  H         4.0372691173       11.3883010401        4.1605324945
  C         4.8128018752        0.5642493662       15.7172786769
  H         4.0438637211        0.5632131539       14.9353724222
  C        15.6066573332       11.3780062468        7.0238201535
  H        14.8268853681       11.3790808559        7.7953484927
  C        15.6497551436        0.5591435171       17.8460005834
  H        14.8791888610        0.5588243074       18.6266480736
  C         4.8089137614       11.3864579236       17.8426296469
  H         4.0315580597       11.3887460025       18.6164829745
  C         4.8058449845        0.5640156383        7.0503983582
  H         4.0371514855        0.5633115951        7.8325697381
  C         6.9375850617       11.3814458569       15.7398967677
  H         7.7260479213       11.3772792234       14.9782992710
  C         6.9028365590        0.5645118751        4.9111245464
  H         7.6696376200        0.5652585426        4.1264192447
  C        17.7380603581       11.3773260910        4.9214576360
  H        18.5186968765       11.3766889944        4.1511407965
  C        17.7507422078        0.5598236744       15.7132333155
  H        18.5204283090        0.5607748319       14.9320206099
  C         6.9439512108       11.3799080492        7.0356893694
  H         7.7302369706       11.3754820468        7.7990706021
  C         6.9113840042        0.5657216598       17.8545234013
  H         7.6790656748        0.5668220791       18.6383326712
  C        17.7382063355       11.3780384182       17.8329758945
  H        18.5194052143       11.3770911410       18.6028748076
  C        17.7511972721        0.5586605011        7.0483052578
  H        18.5204004020        0.5595398724        7.8299542410
  C        15.6059639887       15.7313869519       11.3794930241
  H        14.8262146345       14.9599764573       11.3809187614
  C        15.6518911210        4.9136438324        0.5580105481
  H        14.8822156875        4.1320652914        0.5578060435
  C         4.8128048258       15.7172774784        0.5642446085
  H         4.0438664975       14.9353705330        0.5632104859
  C         4.8153071248        4.9338324451       11.3857645687
  H         4.0372778052        4.1605206299       11.3883000281
  C         6.9375853132       15.7398950883       11.3814493439
  H         7.7260490901       14.9782977407       11.3772844122
  C         6.9028380271        4.9111245920        0.5645109757
  H         7.6696395124        4.1264187678        0.5652565525
  C        17.7507426450       15.7132334136        0.5598233300
  H        18.5204289132       14.9320209039        0.5607740810
  C        17.7380592129        4.9214580553       11.3773253050
  H        18.5186956199        4.1511415924       11.3766889433
  C        15.6066559793        7.0238202732       11.3780063917
  H        14.8268839277        7.7953487731       11.3790810169
  C        15.6497552265       17.8460002590        0.5591431506
  H        14.8791888914       18.6266477802        0.5588246018
  C         4.8058459211        7.0503975836        0.5640208039
  H         4.0371525350        7.8325679519        0.5633151635
  C         4.8089138784       17.8426281894       11.3864541899
  H         4.0315587640       18.6164814965       11.3887423453
  C         6.9439579403        7.0356803006       11.3799047928
  H         7.7302430373        7.7990615516       11.3754779925
  C         6.9113870101       17.8545221972        0.5657201338
  H         7.6790684104       18.6383308531        0.5668186612
  C        17.7511968404        7.0483048651        0.5586606015
  H        18.5204003941        7.8299539587        0.5595408980
  C        17.7382072643       17.8329759695       11.3780381428
  H        18.5194061281       18.6028749301       11.3770905874
 Kr         9.8299844012       11.3662245199       11.3662244904
