     409
 i =      96, E =    -5186.5829438653
  N         3.0281466814        5.2059232237       16.0183168671
  C         1.7100159216        5.4773268277       16.2863600316
  N        13.8447357369        5.2034415829        5.2034430224
  C        12.5271045833        5.4738658851        5.4738690295
  N        19.7114966583       17.5727202598       16.0162424894
  C        21.0296262682       17.3014780120       16.2853372985
  N         8.8906598644       17.5751494167        5.2054972365
  C        10.2085348329       17.3041441981        5.4743697296
  N        19.7074186993        5.2039613618        6.7604272231
  C        21.0254698146        5.4766713750        6.4928094245
  N         8.8906582495        5.2054988865       17.5751467289
  C        10.2085331116        5.4743695821       17.3041429848
  N         3.0271300422       17.5749122577        6.7622123779
  C         1.7092947354       17.3025946214        6.4932568773
  N        13.8496761085       17.5733260126       17.5733257350
  C        12.5318900868       17.3034983875       17.3034981487
  N        15.9952543648        3.0467010761        5.2033776054
  C        16.2637005541        1.7289588850        5.4748120785
  N        16.0002344167       13.8649482974       16.0156718290
  C        16.2698620796       12.5476777648       16.2854416236
  N        15.9999441771       19.7301446224       17.5728384029
  C        16.2673290276       21.0479826874       17.3007034279
  N        15.9968439149        8.9110955257        6.7599874704
  C        16.2665763710       10.2282697027        6.4899290485
  N         6.7393665760       19.7330474424        5.2067938092
  C         6.4707390397       21.0508590233        5.4781469249
  N         6.7407484612        8.9128516891       16.0182310710
  C         6.4713382783       10.2302441852       16.2881381770
  N         6.7396613603        3.0500035741       17.5751225113
  C         6.4729944700        1.7319812762       17.3028767901
  N         6.7390350152       13.8673031237        6.7628189019
  C         6.4689561572       12.5500236627        6.4931841431
  N         5.1856707051       16.0178592951        3.0492444746
  C         5.4579141838       16.2860852982        1.7315445573
  N         5.1840810414        5.2067049110       13.8677091556
  C         5.4533247400        5.4769343295       12.5502425326
  N        17.5537266889       16.0154205042       19.7303716187
  C        17.2822867669       16.2837330217       21.0482027549
  N        17.5507592405        5.2030827899        8.9105406335
  C        17.2816756308        5.4732252848       10.2280055929
  N         5.1846220716        6.7634199912       19.7327741818
  C         5.4553005685        6.4947050308       21.0505936830
  N         5.1857086181       17.5747791841        8.9131753859
  C         5.4558712513       17.3046049636       10.2304692084
  N        17.5497411936        6.7599251937        3.0469498504
  C        17.2790926779        6.4912959203        1.7291591860
  N        17.5545667302       17.5723141853       13.8650822787
  C        17.2851583473       17.3020391765       12.5476230920
  N         5.1825061192        3.0492318394        6.7632037508
  C         5.4541258235        1.7315270528        6.4946524518
  N         5.1869745716       13.8677293337       17.5747892597
  C         5.4564509430       12.5502718666       17.3046187261
  N        17.5513866663       19.7306191622        6.7597377240
  C        17.2799933719       21.0483408278        6.4912071906
  N        17.5528474557        8.9104390225       17.5729483133
  C        17.2842985231       10.2279422716       17.3022904826
  N         5.1878163571       19.7325880934       16.0177338727
  C         5.4590803311       21.0504142373       16.2860561612
  N         5.1827633705        8.9132704380        5.2068459374
  C         5.4526726942       10.2305739385        5.4770275525
  N        17.5520307459        3.0471138037       16.0152078212
  C        17.2813800388        1.7292192659       16.2836158299
  N        17.5525030098       13.8649956898        5.2037455847
  C        17.2825683695       12.5475867527        5.4734731389
  N         3.0297746909       16.0187910676       17.5752644609
  C         1.7117955433       16.2866212799       17.3027162867
  N        13.8469801420       16.0167029701        6.7593696502
  C        12.5294971217       16.2869030158        6.4893648332
  N        19.7099474166       16.0160742097        5.2041871999
  C        21.0278904790       16.2851347982        5.4763628281
  N         8.8929910503       16.0185443628       16.0185434518
  C        10.2106390965       16.2882549092       16.2882545501
  N        19.7089589043        6.7600152907       17.5732021783
  C        21.0271946480        6.4921703168       17.3016388759
  N         8.8895402220        6.7609918212        6.7609928953
  C        10.2068669590        6.4905212335        6.4905241274
  N         3.0254630154        6.7631626813        5.2067701369
  C         1.7074915745        6.4941291724        5.4780326125
  N        13.8469796483        6.7593692031       16.0167038636
  C        12.5294959066        6.4893639453       16.2869033981
  N        15.9972586218        5.2027792597       19.7301656101
  C        16.2647135006        5.4745370883       21.0480402677
  N        15.9989589251       16.0159296730        8.9110450478
  C        16.2691919449       16.2855533067       10.2282136307
  N        15.9979754271       17.5722866058        3.0466234367
  C        16.2663128531       17.3004623023        1.7289287598
  N        15.9981454621        6.7602630870       13.8649084057
  C        16.2672469399        6.4900664161       12.5476503460
  N         6.7366220531        5.2063300866        3.0498117584
  C         6.4693203605        5.4779888792        1.7318911139
  N         6.7416614058       16.0181904412       13.8674722153
  C         6.4718381260       16.2880675953       12.5501077472
  N         6.7425355939       17.5747406619       19.7327997280
  C         6.4744553723       17.3027555709       21.0506738128
  N         6.7380380383        6.7629210798        8.9131214491
  C         6.4684085145        6.4932246613       10.2304222954
  N        19.7089603575       17.5732010555        6.7600160706
  C        21.0271957204       17.3016368209        6.4921721518
  N         8.8932572011       17.5746096308       17.5746081903
  C        10.2109642979       17.3042825643       17.3042817789
  N         3.0254638926        5.2067699417        6.7631624334
  C         1.7074915223        5.4780331188        6.4941283507
  N        13.8472436904        5.2031723124       17.5731267254
  C        12.5295395801        5.4734439869       17.3031429967
  N         3.0297743814       17.5752656314       16.0187899166
  C         1.7117955467       17.3027175867       16.2866200324
  N        13.8472450813       17.5731264972        5.2031723013
  C        12.5295409308       17.3031436267        5.4734440848
  N        19.7099463280        5.2041866003       16.0160760106
  C        21.0278893801        5.4763615678       16.2851378508
  N         8.8880530860        5.2049118916        5.2049132579
  C        10.2060505746        5.4745058612        5.4745089357
  N         6.7425357211       19.7328020270       17.5747394522
  C         6.4744543335       21.0506749067       17.3027531086
  N         6.7380370141        8.9131219873        6.7629220052
  C         6.4684040663       10.2304235339        6.4932300301
  N         6.7366223450        3.0498129245        5.2063305710
  C         6.4693221825        1.7318911122        5.4779887418
  N         6.7416618674       13.8674738445       16.0181904794
  C         6.4718395247       12.5501090297       16.2880688999
  N        15.9979747414        3.0466236423       17.5722867807
  C        16.2663109136        1.7289287889       17.3004612448
  N        15.9981461869       13.8649087093        6.7602625688
  C        16.2672511858       12.5476501238        6.4900680771
  N        15.9972589516       19.7301649784        5.2027792003
  C        16.2647138029       21.0480390735        5.4745361040
  N        15.9989588028        8.9110454481       16.0159289325
  C        16.2691878965       10.2282138834       16.2855547904
  N        17.5513856282        6.7597379300       19.7306202405
  C        17.2799921674        6.4912075883       21.0483416084
  N        17.5528469843       17.5729484384        8.9104384455
  C        17.2843007915       17.3022872743       10.2279415985
  N         5.1825060643        6.7632034882        3.0492312068
  C         5.4541253964        6.4946514386        1.7315272031
  N         5.1869746029       17.5747894997       13.8677275130
  C         5.4564501153       17.3046173513       12.5502699594
  N        17.5520319018       16.0152076361        3.0471132405
  C        17.2813824546       16.2836163804        1.7292193717
  N        17.5525032525        5.2037455764       13.8649954270
  C        17.2825657896        5.4734700613       12.5475866066
  N         5.1878158431       16.0177352755       19.7325860501
  C         5.4590790565       16.2860566047       21.0504133510
  N         5.1827646072        5.2068448612        8.9132697377
  C         5.4526784360        5.4770232003       10.2305720348
  N        17.5537261930       19.7303724633       16.0154206848
  C        17.2822858530       21.0482029227       16.2837323561
  N        17.5507596213        8.9105409181        5.2030825284
  C        17.2816784937       10.2280059070        5.4732264122
  N         5.1856693526        3.0492470731       16.0178581224
  C         5.4579121768        1.7315462266       16.2860825754
  N         5.1840795495       13.8677102231        5.2067039042
  C         5.4533202430       12.5502440138        5.4769389822
  N        17.5497408755        3.0469493494        6.7599262172
  C        17.2790925135        1.7291588863        6.4912966638
  N        17.5545664557       13.8650829287       17.5723129963
  C        17.2851554168       12.5476238429       17.3020397103
  N         5.1846238290       19.7327752005        6.7634182619
  C         5.4553035772       21.0505941606        6.4947033498
  N         5.1857091499        8.9131773537       17.5747788036
  C         5.4558724138       10.2304705623       17.3046061581
  N        19.7074186419        6.7604273648        5.2039616569
  C        21.0254696355        6.4928095609        5.4766715232
  N         8.8913287016        6.7606298223       16.0181435636
  C        10.2088095242        6.4899000724       16.2876519199
  N         3.0271291264        6.7622135243       17.5749126768
  C         1.7092936786        6.4932567698       17.3025970082
  N        13.8451292448        6.7597505268        6.7597514408
  C        12.5275250448        6.4899519128        6.4899547941
  N         3.0281476829       16.0183156120        5.2059215600
  C         1.7100165006       16.2863582649        5.4773278946
  N        13.8487144971       16.0170249497       16.0170250122
  C        12.5313457888       16.2874516229       16.2874517403
  N        19.7114970196       16.0162430566       17.5727194725
  C        21.0296261323       16.2853377068       17.3014774735
  N         8.8913298772       16.0181454083        6.7606287670
  C        10.2088109597       16.2876537668        6.4898993861
  N         6.7396633251       17.5751236025        3.0500008873
  C         6.4729939128       17.3028765586        1.7319793164
  N         6.7390358834        6.7628196757       13.8673026654
  C         6.4689616941        6.4931807953       12.5500223117
  N         6.7393641459        5.2067960876       19.7330458567
  C         6.4707377755        5.4781467395       21.0508582649
  N         6.7407482818       16.0182305508        8.9128504832
  C         6.4713372152       16.2881364558       10.2302430623
  N        15.9999447703       17.5728386020       19.7301444683
  C        16.2673302310       17.3007041546       21.0479822665
  N        15.9968435767        6.7599876816        8.9110954437
  C        16.2665743797        6.4899269798       10.2282693182
  N        15.9952548958        5.2033767071        3.0467016438
  C        16.2637005830        5.4748111670        1.7289593452
  N        16.0002341768       16.0156725064       13.8649478168
  C        16.2698634807       16.2854395091       12.5476771466
 Zn        14.7088837211       14.7225151467       14.7225143354
 Cl        13.4747255494       13.4910921080       13.4910918490
 Zn        14.7074205938        3.9085305134        3.9085311950
 Cl        13.4677887460        2.6797646657        2.6797663059
 Zn         3.8935401852       14.7260187710        3.9110413527
 Cl         2.6611818427       13.4901383482        2.6822236553
 Zn         3.8935400663        3.9110437876       14.7260201203
 Cl         2.6611816919        2.6822253790       13.4901386318
 Zn         8.0329328429        8.0548528552       14.7239228928
 Cl         9.2652141883        9.2868616633       13.4912937015
 Zn         8.0272609745       18.8705241063        3.9120385575
 Cl         9.2666698323       20.0984495710        2.6820277685
 Zn        18.8402429393        8.0516730255        3.9082016837
 Cl        20.0724361328        9.2871663552        2.6785414222
 Zn        18.8442007759       18.8676919945       14.7240387708
 Cl        20.0768838346       20.0949862175       13.4866714617
 Zn         8.0329343914       14.7239224587        8.0548529394
 Cl         9.2652144874       13.4912937310        9.2868613588
 Zn         8.0272559070        3.9120410576       18.8705226741
 Cl         9.2666675072        2.6820307054       20.0984478445
 Zn        18.8442015729       14.7240390151       18.8676908788
 Cl        20.0768836749       13.4866715257       20.0949856778
 Zn        18.8402427387        3.9082015283        8.0516731798
 Cl        20.0724350158        2.6785415383        9.2871679413
 Zn        14.7063855769        8.0538567164        8.0538563857
 Cl        13.4728933854        9.2856644261        9.2856646107
 Zn        14.7118469470       18.8681084302       18.8681088808
 Cl        13.4732856687       20.0973286492       20.0973289052
 Zn         3.8930030466        8.0543851919       18.8693818769
 Cl         2.6616555580        9.2917529422       20.0977298776
 Zn         3.8930029871       18.8693819007        8.0543853672
 Cl         2.6616555485       20.0977302566        9.2917511478
 Zn        14.7076748457       14.7225482147        8.0538372697
 Cl        13.4738043450       13.4909981687        9.2855017687
 Zn        14.7097190976        3.9079134374       18.8675366021
 Cl        13.4706025672        2.6781280462       20.0957462733
 Zn         3.8951327872       14.7261946741       18.8698230006
 Cl         2.6634149721       13.4897142691       20.0986251780
 Zn         3.8914301384        3.9117483530        8.0545365934
 Cl         2.6594523856        2.6832489017        9.2912485525
 Zn         8.0311764198        8.0551189270        8.0551169912
 Cl         9.2640841218        9.2871701346        9.2871708657
 Zn         8.0315639737       18.8694990452       18.8694984974
 Cl         9.2717032937       20.0979749262       20.0979731103
 Zn        18.8415564286        8.0514642636       18.8687262907
 Cl        20.0750397777        9.2875785977       20.0965271025
 Zn        18.8415576816       18.8687256017        8.0514630139
 Cl        20.0750406454       20.0965255736        9.2875787591
 Zn        14.7076753633        8.0538375533       14.7225479134
 Cl        13.4738030377        9.2855016685       13.4909988159
 Zn        14.7097205069       18.8675359113        3.9079136455
 Cl        13.4706033643       20.0957451211        2.6781277404
 Zn         3.8914298541        8.0545376166        3.9117480493
 Cl         2.6594513074        9.2912487400        2.6832488327
 Zn         3.8951325510       18.8698234511       14.7261931197
 Cl         2.6634152334       20.0986257568       13.4897123895
 Zn         8.0345631873       14.7241958013       14.7241947519
 Cl         9.2662881532       13.4916162812       13.4916158345
 Zn         8.0235309219        3.9107696575        3.9107688056
 Cl         9.2619997284        2.6812675178        2.6812678664
 Zn        18.8426892407       14.7238780750        3.9092574463
 Cl        20.0741577683       13.4871203205        2.6800957462
 Zn        18.8426883735        3.9092579498       14.7238774046
 Cl        20.0741571863        2.6800944107       13.4871219154
 Zn         5.9576393505        5.9866780193       16.7986005376
 Zn        16.7764548938       16.7942192104       16.7942178217
 Zn        16.7734275489        5.9819840471        5.9819839509
 Zn         5.9576403824       16.7986051392        5.9866740765
 Zn         5.9559872328        5.9867081477        5.9867074969
 Zn        16.7749305886       16.7942910898        5.9819736014
 Zn         5.9593900397       16.7987246371       16.7987219810
 Zn        16.7749305152        5.9819739100       16.7942919607
  N         3.7739019963        5.9833670346       16.7977544573
  N        14.5911983920        5.9814942765        5.9814946062
  N        18.9651776495       16.7951093458       16.7951094284
  N         8.1445114796       16.7970143520        5.9836597523
  N        18.9611080358        5.9807934478        5.9807941938
  N         8.1445106980        5.9836590150       16.7970143597
  N         3.7739035684       16.7977549574        5.9833655077
  N        14.5954536916       16.7949892599       16.7949894357
  N        16.7732773870        3.7935671537        5.9808167417
  N        16.7773725813       14.6115446478       16.7940212039
  N        16.7780375135       18.9835005342       16.7952426962
  N        16.7737565798        8.1642942536        5.9817146689
  N         5.9612979800       18.9862299651        5.9843503382
  N         5.9629891048        8.1666439291       16.7965120210
  N         5.9610738493        3.7963951164       16.7977372703
  N         5.9617602344       14.6141125123        5.9846862604
  N         5.9610753956       16.7977377313        3.7963930969
  N         5.9617566724        5.9846875412       14.6141101422
  N        16.7780375106       16.7952423151       18.9835002901
  N        16.7737566261        5.9817155176        8.1642945450
  N         5.9612970716        5.9843518676       18.9862295207
  N         5.9629906865       16.7965112146        8.1666412485
  N        16.7732777408        5.9808151964        3.7935675672
  N        16.7773715185       16.7940224951       14.6115448424
  N         5.9583595120        3.7963340438        5.9838449701
  N         5.9643813269       14.6141809716       16.7965328456
  N        16.7755011979       18.9836155967        5.9802905070
  N        16.7755228967        8.1642215058       16.7945713887
  N         5.9641119872       18.9860684318       16.7973376523
  N         5.9602874716        8.1667913961        5.9848481057
  N        16.7757935871        3.7935914809       16.7947458834
  N        16.7756235222       14.6114970199        5.9822913057
  N         3.7760387452       16.7983492542       16.7983476508
  N        14.5933706833       16.7948393585        5.9812652837
  N        18.9631419321       16.7953915947        5.9809360058
  N         8.1466180992       16.7966805572       16.7966790344
  N        18.9631414692        5.9809352706       16.7953931571
  N         8.1423350252        5.9832547126        5.9832548575
  N         3.7717409179        5.9843517096        5.9843490723
  N        14.5933688582        5.9812657055       16.7948398093
  N        16.7755001341        5.9802915989       18.9836168639
  N        16.7755230991       16.7945711116        8.1642220438
  N        16.7757956265       16.7947449570        3.7935917252
  N        16.7756225155        5.9822911751       14.6114980522
  N         5.9583585182        5.9838459591        3.7963335206
  N         5.9643812393       16.7965342515       14.6141792627
  N         5.9641122385       16.7973394931       18.9860662882
  N         5.9602875699        5.9848507833        8.1667904156
  C        11.3706082951       15.7373934404       15.7373936032
  H        11.3701587508       14.9617973756       14.9617978363
  C        11.3662707354        4.9238934883        4.9238971137
  H        11.3658637809        4.1483723087        4.1483756496
  C         0.5494617535       15.7349175658        4.9275614733
  H         0.5506027387       14.9587864976        4.1526129461
  C         0.5494616072        4.9275600410       15.7349203865
  H         0.5506019451        4.1526117808       14.9587893810
  C        11.3691163814        7.0398149168       15.7365552875
  H        11.3690996379        7.8152070793       14.9607581117
  C        11.3690440546       17.8539722773        4.9236469178
  H        11.3691108949       18.6296340209        4.1482646291
  C         0.5465160216        7.0442433455        4.9279712366
  H         0.5467823368        7.8202431021        4.1528931078
  C         0.5507450766       17.8515032683       15.7353043933
  H         0.5510316031       18.6266394192       14.9593629855
  C        11.3691177916       15.7365558698        7.0398151452
  H        11.3690998871       14.9607585565        7.8152072329
  C        11.3690416592        4.9236466033       17.8539713980
  H        11.3691083420        4.1482646608       18.6296329538
  C         0.5507450272       15.7353052049       17.8515023015
  H         0.5510324606       14.9593638230       18.6266384687
  C         0.5465161311        4.9279712983        7.0442427638
  H         0.5467834491        4.1528930007        7.8202425163
  C        11.3674708419        7.0406865662        7.0406898649
  H        11.3678664485        7.8162798950        7.8162828693
  C        11.3717496188       17.8541913558       17.8541906422
  H        11.3723413786       18.6297141740       18.6297131678
  C         0.5477860045        7.0432962244       17.8516392026
  H         0.5472189406        7.8191574462       18.6268535946
  C         0.5477866803       17.8516367965        7.0432972559
  H         0.5472204875       18.6268516438        7.8191582308
  C        15.7190524078       11.3880716509       15.7343754913
  H        14.9436083128       11.3882221057       14.9586115489
  C        15.7133727212        0.5683372059        4.9247083828
  H        14.9375383499        0.5681816438        4.1494241787
  C         4.9023093236       11.3905359497        4.9263956299
  H         4.1266766234       11.3906372921        4.1509462787
  C         4.9091034385        0.5707311579       15.7348605732
  H         4.1339093123        0.5704185486       14.9589588974
  C        15.7162597550       11.3880947562        7.0409926134
  H        14.9408393180       11.3882389960        7.8167801025
  C        15.7161306434        0.5683042319       17.8506222074
  H        14.9404886291        0.5681374234       18.6260917482
  C         4.9057263447       11.3905192128       17.8553312840
  H         4.1302516309       11.3906176825       18.6309255563
  C         4.9050988209        0.5708268677        7.0457809789
  H         4.1299743587        0.5704996576        7.8217434137
  C         7.0219540722       11.3900591122       15.7370093809
  H         7.7970301283       11.3897581600       14.9608595455
  C         7.0206571694        0.5716822512        4.9278894623
  H         7.7961025440        0.5723475277        4.1521833869
  C        17.8324436560       11.3876630055        4.9222653919
  H        18.6075999277       11.3873901621        4.1463228608
  C        17.8311392330        0.5689241866       15.7321794427
  H        18.6058142794        0.5694362230       14.9557262831
  C         7.0192332092       11.3901019535        7.0442131616
  H         7.7946491355       11.3898259396        7.8200177066
  C         7.0243846445        0.5716423501       17.8528022011
  H         7.7998146309        0.5723329260       18.6285032197
  C        17.8352181721       11.3876438416       17.8530301746
  H        18.6105193127       11.3873829905       18.6288273146
  C        17.8291687058        0.5689511050        7.0424789384
  H        18.6042360182        0.5694725899        7.8185403950
  C        15.7190552102       15.7343732846       11.3880724773
  H        14.9436104279       14.9586100713       11.3882218003
  C        15.7133725155        4.9247080696        0.5683382325
  H        14.9375383325        4.1494239174        0.5681821530
  C         4.9091034808       15.7348621579        0.5707270023
  H         4.1339093320       14.9589603286        0.5704169067
  C         4.9023155591        4.9263900565       11.3905363223
  H         4.1266823386        4.1509415040       11.3906359869
  C         7.0219525540       15.7370074901       11.3900574462
  H         7.7970287909       14.9608576659       11.3897567921
  C         7.0206553579        4.9278894522        0.5716791583
  H         7.7961007380        4.1521834508        0.5723455578
  C        17.8311408524       15.7321799941        0.5689238226
  H        18.6058156820       14.9557266665        0.5694353813
  C        17.8324408698        4.9222633545       11.3876635154
  H        18.6075980743        4.1463216392       11.3873899383
  C        15.7162566769        7.0409903723       11.3880953708
  H        14.9408369068        7.8167786262       11.3882387397
  C        15.7161325141       17.8506230755        0.5683038804
  H        14.9404903932       18.6260927481        0.5681377010
  C         4.9050971149        7.0457811577        0.5708250119
  H         4.1299727930        7.8217435840        0.5705001739
  C         4.9057252274       17.8553299200       11.3905171828
  H         4.1302507563       18.6309246723       11.3906154085
  C         7.0192392243        7.0442078939       11.3901023323
  H         7.7946543738        7.8200131099       11.3898248023
  C         7.0243850384       17.8528034718        0.5716374638
  H         7.7998153064       18.6285042404        0.5723303800
  C        17.8291684099        7.0424786804        0.5689519803
  H        18.6042358284        7.8185399055        0.5694736132
  C        17.8352209638       17.8530281272       11.3876443113
  H        18.6105215005       18.6288259959       11.3873823309
 Kr         1.7451875533       10.7446027120       10.7446024159
