     409
 i =      96, E =    -5186.5867667493
  N         2.9645517206        5.2037770511       16.0070855499
  C         1.6460103621        5.4732174477       16.2756746784
  N        13.7853430735        5.1812354720        5.1812340441
  C        12.4660471763        5.4467808339        5.4467798785
  N        19.6472616093       17.5615368494       16.0056917629
  C        20.9653797428       17.2928799305       16.2768050903
  N         8.8276822095       17.5917415082        5.1795626983
  C        10.1453547694       17.3190186165        5.4480072989
  N        19.6434957089        5.2005128883        6.7571066282
  C        20.9615686088        5.4734909559        6.4896254400
  N         8.8276801456        5.1795520962       17.5917510553
  C        10.1453884768        5.4479990263       17.3190270551
  N         2.9624989426       17.5632416663        6.7598279335
  C         1.6447085319       17.2919149538        6.4892181265
  N        13.7867873013       17.5754314608       17.5754316934
  C        12.4673619889       17.3095675071       17.3095682806
  N        15.9429077067        3.0360000485        5.1925515598
  C        16.2092245503        1.7189164547        5.4674961048
  N        15.9200404721       13.8582324031       16.0096504281
  C        16.1899049930       12.5403938757       16.2783778404
  N        15.9423251397       19.7222627462       17.5660887527
  C        16.2090620641       21.0395914801       17.2921850396
  N        15.9170512337        8.9000696841        6.7465565661
  C        16.1867812591       10.2184305499        6.4785157647
  N         6.6593092857       19.7283129567        5.1971333740
  C         6.3904680015       21.0450073964        5.4710215705
  N         6.6870300502        8.9064026950       16.0088254179
  C         6.4138568434       10.2241403853       16.2736177378
  N         6.6637825395        3.0430067636       17.5729417710
  C         6.3965995172        1.7259165853       17.2985845406
  N         6.6930900381       13.8613782247        6.7678024957
  C         6.4191398851       12.5438765745        6.5020885765
  N         5.1193836751       16.0057737352        3.0446282685
  C         5.3876784978       16.2755324218        1.7262750184
  N         5.1306784980        5.2181661176       13.8616193860
  C         5.3987890624        5.4903878133       12.5441786736
  N        17.4906935562       16.0034889591       19.7208587075
  C        17.2205974550       16.2717752871       21.0391859534
  N        17.4789000901        5.1970316232        8.9023887145
  C        17.2066429192        5.4664110795       10.2193357802
  N         5.1140149122        6.7633200777       19.7252355272
  C         5.3813820807        6.4939338767       21.0439317013
  N         5.1248945661       17.5576655344        8.9080651266
  C         5.3938130651       17.2854781549       10.2251916480
  N        17.4904518313        6.7562651144        3.0378786455
  C        17.2200519494        6.4885725193        1.7196452589
  N        17.4829241565       17.5584373591       13.8568664984
  C        17.2103050533       17.2899854833       12.5397810912
  N         5.1126296149        3.0439671580        6.7630312116
  C         5.3806104926        1.7254433790        6.4938279753
  N         5.1266203425       13.8623029042       17.5563981089
  C         5.3946127611       12.5448312791       17.2847576593
  N        17.4903202636       19.7198811314        6.7580320731
  C        17.2202981765       21.0383081585        6.4896788767
  N        17.4809698233        8.9030369894       17.5580375285
  C        17.2090745833       10.2201745673       17.2896832846
  N         5.1204395368       19.7262281278       16.0068578314
  C         5.3883553140       21.0448044516       16.2761113176
  N         5.1292302004        8.9074036213        5.2146205693
  C         5.3981617988       10.2242815332        5.4885682441
  N        17.4897868268        3.0386244256       16.0040335679
  C        17.2198390914        1.7204963316       16.2722834225
  N        17.4804406812       13.8561244591        5.1981514414
  C        17.2076835186       12.5390618811        5.4668829685
  N         2.9654879371       16.0108635019       17.5669436500
  C         1.6473697047       16.2794193823       17.2955247924
  N        13.7771578793       16.0190733942        6.7392791388
  C        12.4616833367       16.2942160305        6.4661592333
  N        19.6460554593       16.0040107951        5.1992443525
  C        20.9638780442       16.2740310161        5.4710379867
  N         8.8257344380       16.0310818264       16.0310834672
  C        10.1432984434       16.2996011926       16.2996024390
  N        19.6442116812        6.7559839479       17.5595877580
  C        20.9626069039        6.4872717552       17.2900039076
  N         8.8261180835        6.7256937294        6.7256945484
  C        10.1433683875        6.4570354153        6.4570353105
  N         2.9620811747        6.7627799950        5.2065337246
  C         1.6438785762        6.4924378284        5.4762874641
  N        13.7771628585        6.7392795627       16.0190752438
  C        12.4616661332        6.4661701898       16.2942068732
  N        15.9430665483        5.1943534767       19.7217071922
  C        16.2095004791        5.4685197080       21.0388915619
  N        15.9186122908       16.0093892982        8.9017505627
  C        16.1888118871       16.2780694540       10.2197531329
  N        15.9409160119       17.5664126330        3.0373253001
  C        16.2081904438       17.2925274178        1.7200520338
  N        15.9186162802        6.7484233719       13.8574786122
  C        16.1878964628        6.4792015888       12.5394509645
  N         6.6568022794        5.1955001810        3.0412157485
  C         6.3891836392        5.4704355286        1.7246054304
  N         6.6875586189       16.0057330307       13.8618688424
  C         6.4140941996       16.2722205323       12.5445705160
  N         6.6658606779       17.5727624710       19.7286338974
  C         6.3977564791       17.2987158294       21.0457337475
  N         6.6929240233        6.7621151878        8.9042816108
  C         6.4191538323        6.4995182006       10.2224769986
  N        19.6442161553       17.5595847815        6.7559858815
  C        20.9625966546       17.2899909705        6.4872632167
  N         8.8283176008       17.5866304944       17.5866334238
  C        10.1459609329       17.3155226817       17.3155247579
  N         2.9620795580        5.2065296582        6.7627806956
  C         1.6438793928        5.4762850954        6.4924385298
  N        13.7858455914        5.1853617462       17.5767695729
  C        12.4664834469        5.4514827373       17.3112970406
  N         2.9654891859       17.5669453899       16.0108640497
  C         1.6473692256       17.2955271948       16.2794189984
  N        13.7858438467       17.5767684443        5.1853611930
  C        12.4664967658       17.3112863901        5.4514923574
  N        19.6460479685        5.1992461865       16.0040118974
  C        20.9638904776        5.4710294386       16.2740226543
  N         8.8275672306        5.1712110495        5.1712129794
  C        10.1453029555        5.4412715700        5.4412717797
  N         6.6658625306       19.7286335971       17.5727621058
  C         6.3977661502       21.0457499444       17.2987263721
  N         6.6929204064        8.9042852611        6.7621201041
  C         6.4191440765       10.2224620307        6.4995089040
  N         6.6568006481        3.0412118153        5.1955001450
  C         6.3891726568        1.7246209502        5.4704451047
  N         6.6875588422       13.8618733738       16.0057316774
  C         6.4141036316       12.5445535559       16.2722096551
  N        15.9409141400        3.0373278730       17.5664110454
  C        16.2081869955        1.7200548600       17.2925255552
  N        15.9186175779       13.8574762138        6.7484242146
  C        16.1878980809       12.5394492331        6.4792008246
  N        15.9430651163       19.7217096256        5.1943533806
  C        16.2094999826       21.0388924275        5.4685208661
  N        15.9186119549        8.9017479996       16.0093904238
  C        16.1888090099       10.2197526349       16.2780697525
  N        17.4903156208        6.7580349710       19.7198808542
  C        17.2202957081        6.4896806906       21.0383062614
  N        17.4809710847       17.5580388712        8.9030367768
  C        17.2090768179       17.2896835360       10.2201766658
  N         5.1126279144        6.7630310700        3.0439723258
  C         5.3805991063        6.4938383510        1.7254282639
  N         5.1266208360       17.5563960192       13.8623009943
  C         5.3946237975       17.2847466711       12.5448461100
  N        17.4897898301       16.0040326431        3.0386209838
  C        17.2198418495       16.2722847205        1.7204932534
  N        17.4804384930        5.1981531789       13.8561261907
  C        17.2076825569        5.4668845916       12.5390647523
  N         5.1204388155       16.0068598704       19.7262311501
  C         5.3883653894       16.2761210910       21.0447871226
  N         5.1292312132        5.2146170814        8.9074010989
  C         5.3981498507        5.4885592296       10.2242959572
  N        17.4906919685       19.7208607685       16.0034881476
  C        17.2205937078       21.0391853839       16.2717747702
  N        17.4789004477        8.9023877779        5.1970309457
  C        17.2066440431       10.2193368477        5.4664089246
  N         5.1193711111        3.0446268616       16.0057638945
  C         5.3876663077        1.7262418549       16.2755267988
  N         5.1306865341       13.8616182861        5.2181800973
  C         5.3988035838       12.5442146205        5.4903921358
  N        17.4904531711        3.0378780830        6.7562656625
  C        17.2200541433        1.7196431487        6.4885737307
  N        17.4829225322       13.8568669892       17.5584362481
  C        17.2103014977       12.5397832103       17.2899844822
  N         5.1140255740       19.7252323560        6.7633082352
  C         5.3813927007       21.0438925659        6.4939244085
  N         5.1248863048        8.9080643077       17.5576828807
  C         5.3937991422       10.2252319965       17.2854864522
  N        19.6434963299        6.7571062227        5.2005145649
  C        20.9615687558        6.4896251725        5.4734923278
  N         8.8256952553        6.7326322321       16.0345365289
  C        10.1431131306        6.4626154565       16.3019278249
  N         2.9624976858        6.7598377925       17.5632568599
  C         1.6446715743        6.4892266378       17.2919252493
  N        13.7767969826        6.7367061337        6.7367045990
  C        12.4614009365        6.4626027132        6.4626015092
  N         2.9645575487       16.0070955575        5.2037865316
  C         1.6460436002       16.2756813984        5.4732216687
  N        13.7777057670       16.0194693102       16.0194671156
  C        12.4622347282       16.2936688069       16.2936680130
  N        19.6472611682       16.0056921302       17.5615330560
  C        20.9653796998       16.2768056481       17.2928771649
  N         8.8256944292       16.0345461920        6.7326214316
  C        10.1430809185       16.3019348085        6.4626070123
  N         6.6637744369       17.5729294575        3.0430039702
  C         6.3965940332       17.2985714287        1.7259537380
  N         6.6931054631        6.7678080809       13.8613783982
  C         6.4191452327        6.5021010106       12.5438403113
  N         6.6593212368        5.1971251749       19.7283147952
  C         6.3904773588        5.4710129388       21.0450473771
  N         6.6870166121       16.0088327539        8.9063989487
  C         6.4138525550       16.2736294533       10.2241035916
  N        15.9423268436       17.5660904600       19.7222617357
  C        16.2090643511       17.2921878753       21.0395923440
  N        15.9170506474        6.7465562635        8.9000706872
  C        16.1867814798        6.4785155551       10.2184291701
  N        15.9429105465        5.1925476613        3.0359993702
  C        16.2092270910        5.4674939550        1.7189188889
  N        15.9200423437       16.0096504435       13.8582332080
  C        16.1899069093       16.2783764025       12.5403911495
 Zn        14.6229607329       14.7212084200       14.7212076577
 Cl        13.3979321467       13.4858282582       13.4858290654
 Zn        14.6566777729        3.8936973032        3.8936979124
 Cl        13.4275670041        2.6591673016        2.6591710921
 Zn         3.8367166439       14.7143188023        3.9176151780
 Cl         2.6119916566       13.4627976920        2.6962560655
 Zn         3.8367019979        3.9176033166       14.7143060975
 Cl         2.6119888479        2.6962555685       13.4627996920
 Zn         7.9956378317        8.0383447120       14.7391471917
 Cl         9.3335741594        9.2375595935       13.5866676964
 Zn         7.9508385830       18.8785134351        3.8955701233
 Cl         9.1588609660       20.1221827216        2.6508829303
 Zn        18.7766088779        8.0496213109        3.9057761514
 Cl        20.0108902008        9.2857507147        2.6789888529
 Zn        18.7781582545       18.8493849155       14.7139324026
 Cl        20.0120513838       20.0752063736       13.4752063317
 Zn         7.9956246664       14.7391614886        8.0383293047
 Cl         9.3335739015       13.5866658421        9.2375569164
 Zn         7.9508520819        3.8955566348       18.8785271116
 Cl         9.1588610992        2.6508822170       20.1221865865
 Zn        18.7781587299       14.7139323128       18.8493807563
 Cl        20.0120521351       13.4752092379       20.0752049009
 Zn        18.7766086463        3.9057762534        8.0496231875
 Cl        20.0108894294        2.6789902167        9.2857547870
 Zn        14.6211961931        8.0341147634        8.0341148874
 Cl        13.3965220974        9.2700677032        9.2700683649
 Zn        14.6567694681       18.8664564511       18.8664560966
 Cl        13.4239989439       20.0987646406       20.0987656551
 Zn         3.8304461500        8.0551265476       18.8514220076
 Cl         2.5999410923        9.2972476204       20.0767125819
 Zn         3.8304620899       18.8514031516        8.0551121886
 Cl         2.5999442165       20.0767070939        9.2972444552
 Zn        14.6222895976       14.7208217970        8.0374592276
 Cl        13.3973357330       13.4857895616        9.2734881668
 Zn        14.6560486045        3.8964566597       18.8675829812
 Cl        13.4239258221        2.6615870716       20.0982907569
 Zn         3.8347957264       14.7170181657       18.8545053642
 Cl         2.6067598663       13.4728490421       20.0801818792
 Zn         3.8325425946        3.9183950947        8.0570258690
 Cl         2.6049208620        2.6986405415        9.3070915105
 Zn         7.9996609795        8.0245570374        8.0245511246
 Cl         9.3488599769        9.1950962914        9.1950943276
 Zn         7.9542662922       18.8750605378       18.8750656388
 Cl         9.1723241503       20.1143122064       20.1143098948
 Zn        18.7767732466        8.0505406458       18.8478169393
 Cl        20.0109121220        9.2854681507       20.0768438055
 Zn        18.7767772802       18.8478142491        8.0505377099
 Cl        20.0109148071       20.0768466687        9.2854686425
 Zn        14.6222906360        8.0374627448       14.7208191861
 Cl        13.3973352919        9.2734891456       13.4857914866
 Zn        14.6560467169       18.8675796210        3.8964588311
 Cl        13.4239258690       20.0982912182        2.6615846137
 Zn         3.8325419574        8.0570309501        3.9184046444
 Cl         2.6049193093        9.3070885845        2.6986428362
 Zn         3.8347962745       18.8545007220       14.7170119424
 Cl         2.6067592309       20.0801832765       13.4728478211
 Zn         7.9915434433       14.7305296797       14.7305232129
 Cl         9.3166932533       13.5476660002       13.5476661282
 Zn         7.9465716005        3.8900140052        3.8900199140
 Cl         9.1435604724        2.6404477398        2.6404475189
 Zn        18.7774631354       14.7138582518        3.9059401965
 Cl        20.0112636482       13.4746239629        2.6813468173
 Zn        18.7774597527        3.9059388796       14.7138565731
 Cl        20.0112608807        2.6813477558       13.4746259058
 Zn         5.8981037703        5.9725526699       16.7949825734
 Zn        16.7129344441       16.7831937945       16.7831926809
 Zn        16.7130014300        5.9670256048        5.9670266681
 Zn         5.8981023253       16.7949773881        5.9725531040
 Zn         5.8964916327        5.9681229196        5.9681249924
 Zn        16.7125288487       16.7824152791        5.9686607812
 Zn         5.8993410895       16.7933845190       16.7933830576
 Zn        16.7125278830        5.9686620354       16.7824152766
  N         3.7099837173        5.9821330365       16.7858122974
  N        14.5277598165        5.9611547703        5.9611530955
  N        18.9008325110       16.7828787670       16.7828773733
  N         8.0801350131       16.8139630651        5.9571988472
  N        18.8973228969        5.9773006567        5.9773018052
  N         8.0801093926        5.9571990018       16.8139631430
  N         3.7099596648       16.7858110661        5.9821320161
  N        14.5287824946       16.7952200489       16.7952185699
  N        16.7178055530        3.7835029545        5.9722311949
  N        16.7023858470       14.6038343542       16.7838732162
  N        16.7173795607       18.9747841913       16.7864834472
  N        16.6988822780        8.1545758242        5.9714358260
  N         5.8870873409       18.9803241121        5.9787719200
  N         5.9070917961        8.1604426108       16.7857730018
  N         5.8912953165        3.7902331025       16.7908273542
  N         5.9133266566       14.6081519213        5.9905156213
  N         5.8912982429       16.7908258644        3.7902057307
  N         5.9133268226        5.9905157078       14.6081779964
  N        16.7173808131       16.7864839322       18.9747818357
  N        16.6988817715        5.9714355669        8.1545776799
  N         5.8870875384        5.9787735745       18.9802984268
  N         5.9070909996       16.7857711789        8.1604694274
  N        16.7178062691        5.9722285710        3.7835021738
  N        16.7023866146       16.7838739810       14.6038350668
  N         5.8846885965        3.7888080608        5.9774075312
  N         5.9084626120       14.6087232726       16.7829791125
  N        16.7175934720       18.9739866934        5.9743025180
  N        16.7005579175        8.1557355394       16.7836611139
  N         5.8931497465       18.9808535235       16.7912546435
  N         5.9123461229        8.1590444392        5.9846499472
  N        16.7161212473        3.7845239601       16.7867611284
  N        16.7005405036       14.6030444460        5.9734843733
  N         3.7119240536       16.7895160268       16.7895150815
  N        14.5280653157       16.7953606913        5.9641033647
  N        18.8988206001       16.7816978728        5.9769069429
  N         8.0806395923       16.8089520143       16.8089543154
  N        18.8988123380        5.9769066563       16.7816990913
  N         8.0800700874        5.9488397427        5.9488406215
  N         3.7084300667        5.9847270033        5.9847300510
  N        14.5280721513        5.9641047096       16.7953617193
  N        16.7175918568        5.9743049392       18.9739911141
  N        16.7005581943       16.7836616915        8.1557309153
  N        16.7161228890       16.7867609529        3.7845266481
  N        16.7005385783        5.9734844529       14.6030413284
  N         5.8846901641        5.9774084983        3.7888225554
  N         5.9084630970       16.7829804077       14.6087102745
  N         5.8931480584       16.7912573477       18.9808645150
  N         5.9123486052        5.9846452207        8.1590330451
  C        11.3002439579       15.7460657680       15.7460651079
  H        11.2933214155       14.9704192193       14.9704170972
  C        11.3081480698        4.8933058080        4.8933056444
  H        11.3130054603        4.1178891096        4.1178889668
  C         0.4858324592       15.7243445239        4.9225299381
  H         0.4868469223       14.9479034687        4.1479421777
  C         0.4858251815        4.9225452125       15.7243564415
  H         0.4868442726        4.1479473649       14.9479014413
  C        11.3000374774        7.0142456794       15.7467285037
  H        11.2929096939        7.7896720907       14.9708408031
  C        11.3084767236       17.8661915340        4.8996292726
  H        11.3133125122       18.6423821870        4.1249481236
  C         0.4827205398        7.0415177129        4.9253688349
  H         0.4823894575        7.8176078875        4.1503838323
  C         0.4863664480       17.8440719829       15.7277300652
  H         0.4860577867       18.6188510911       14.9514279750
  C        11.3000330746       15.7467134807        7.0142583155
  H        11.2929092186       14.9708380621        7.7896708315
  C        11.3084796038        4.8996420975       17.8661787238
  H        11.3133118012        4.1249478642       18.6423824810
  C         0.4863658403       15.7277291667       17.8440684850
  H         0.4860567190       14.9514259605       18.6188455041
  C         0.4827197940        4.9253655563        7.0415180603
  H         0.4823881960        4.1503799389        7.8176071877
  C        11.3001000181        7.0105500501        7.0105491951
  H        11.2926743362        7.7862140416        7.7862130600
  C        11.3093860173       17.8630015667       17.8630037292
  H        11.3143306225       18.6384506011       18.6384533039
  C         0.4827498902        7.0385540910       17.8408349801
  H         0.4811121710        7.8145045733       18.6160211859
  C         0.4827559349       17.8408435867        7.0385689059
  H         0.4811147765       18.6160156612        7.8145090766
  C        15.6365490595       11.3803403393       15.7298796994
  H        14.8586525576       11.3808964169       14.9566404561
  C        15.6606701793        0.5586258865        4.9157041137
  H        14.8884251849        0.5584293175        4.1367270147
  C         4.8450582061       11.3848114818        4.9420297724
  H         4.0673218162       11.3856928779        4.1684751403
  C         4.8415298435        0.5652409165       15.7215607033
  H         4.0707686659        0.5647336665       14.9413089357
  C        15.6346825715       11.3789897944        7.0272987557
  H        14.8567858454       11.3791969363        7.8006349769
  C        15.6596461400        0.5595694054       17.8442347534
  H        14.8866708592        0.5593389383       18.6224109761
  C         4.8413951583       11.3853833883       17.8335031191
  H         4.0644055345       11.3859910572       18.6078410062
  C         4.8346059802        0.5645295020        7.0484344571
  H         4.0642434484        0.5642574604        7.8290183028
  C         6.9662929932       11.3839502706       15.7242992263
  H         7.7484854098       11.3828430280       14.9557539644
  C         6.9367940745        0.5649751218        4.9166733237
  H         7.7065922157        0.5656671136        4.1352542176
  C        17.7594898459       11.3790697852        4.9181253525
  H        18.5380045205       11.3789232793        4.1455466485
  C        17.7675660301        0.5601250417       15.7185972480
  H        18.5397970874        0.5608798220       14.9398044109
  C         6.9714922190       11.3825500944        7.0491186572
  H         7.7537783011       11.3811379958        7.8173444054
  C         6.9444402074        0.5661203694       17.8521834778
  H         7.7150981300        0.5669826116       18.6327795412
  C        17.7625313308       11.3796224374       17.8382209892
  H        18.5414872309       11.3791394682       18.6104183681
  C        17.7670192204        0.5592718811        7.0429472373
  H        18.5388963448        0.5600305388        7.8220768584
  C        15.6365535328       15.7298796752       11.3803398365
  H        14.8586564212       14.9566386402       11.3808962224
  C        15.6606720534        4.9156987564        0.5586264395
  H        14.8884310482        4.1367200970        0.5584289537
  C         4.8415175702       15.7215450796        0.5652459379
  H         4.0707700863       14.9413077327        0.5647347309
  C         4.8450705013        4.9420444664       11.3848069970
  H         4.0673196970        4.1684768153       11.3856918761
  C         6.9663102882       15.7242849465       11.3839438042
  H         7.7484883631       14.9557540741       11.3828414021
  C         6.9367800819        4.9166906103        0.5649821056
  H         7.7065940168        4.1352574397        0.5656694875
  C        17.7675675042       15.7186001136        0.5601242204
  H        18.5397995994       14.9398058131        0.5608783945
  C        17.7594918086        4.9181256168       11.3790697337
  H        18.5380058996        4.1455492817       11.3789242544
  C        15.6346801408        7.0273005079       11.3789893822
  H        14.8567844104        7.8006349528       11.3791966337
  C        15.6596514993       17.8442358694        0.5595693766
  H        14.8866754981       18.6224141519        0.5593385751
  C         4.8346191760        7.0484185487        0.5645372538
  H         4.0642408699        7.8290159245        0.5642609642
  C         4.8413793507       17.8335172970       11.3853776840
  H         4.0644033263       18.6078390815       11.3859885463
  C         6.9714790842        7.0491021623       11.3825449583
  H         7.7537810246        7.8173395297       11.3811362597
  C         6.9444576357       17.8521969052        0.5661237983
  H         7.7151010450       18.6327780395        0.5669821909
  C        17.7670173016        7.0429511050        0.5592735507
  H        18.5388907285        7.8220808723        0.5600321958
  C        17.7625321083       17.8382191123       11.3796208087
  H        18.5414899515       18.6104184011       11.3791381043
 Kr         7.2385669348       11.3515415715       11.3515407805
