     409
 i =      96, E =    -5186.5748614987
  N         2.9456039407        5.2029567762       16.0070537460
  C         1.6270624276        5.4728224579       16.2741043610
  N        13.7737970110        5.1652252068        5.1652266931
  C        12.4522774969        5.4252309955        5.4252322979
  N        19.6293490801       17.5568469877       16.0015393419
  C        20.9470719948       17.2896465044       16.2737240767
  N         8.8153423924       17.6228392280        5.1474263833
  C        10.1317599360       17.3448149067        5.4181949952
  N        19.6259660231        5.2035983323        6.7597661735
  C        20.9435119709        5.4754441390        6.4914291287
  N         8.8153403033        5.1474278953       17.6228384472
  C        10.1317586682        5.4181954034       17.3448153208
  N         2.9424441989       17.5637628101        6.7576755285
  C         1.6252166670       17.2906533434        6.4882766805
  N        13.7787335451       17.5865879499       17.5865868546
  C        12.4571221757       17.3268159637       17.3268151761
  N        15.9392814310        3.0341185414        5.1903004423
  C        16.2043364471        1.7177250434        5.4674430496
  N        15.8970936703       13.8582888362       16.0124006489
  C        16.1668083480       12.5395648046       16.2791533217
  N        15.9374273420       19.7229579168       17.5674968364
  C        16.2030592327       21.0396689620       17.2916770238
  N        15.8946485794        8.8970717906        6.7403885947
  C        16.1653519294       10.2164132997        6.4755166292
  N         6.6290138830       19.7304371869        5.1906481549
  C         6.3622665871       21.0459674940        5.4676732698
  N         6.6637303658        8.9015597025       16.0204156675
  C         6.3920679499       10.2211041986       16.2821042929
  N         6.6349941808        3.0398852650       17.5776667142
  C         6.3699581549        1.7239727801       17.3001777313
  N         6.6762522932       13.8624841135        6.7633926659
  C         6.4019604979       12.5440969860        6.4985425356
  N         5.0955073446       16.0059433588        3.0430508846
  C         5.3640820915       16.2742316336        1.7248135087
  N         5.1123567768        5.2155576804       13.8627440171
  C         5.3802251528        5.4881893730       12.5448986369
  N        17.4798684967       15.9992228051       19.7200993378
  C        17.2108948965       16.2676471140       21.0387059343
  N        17.4623110651        5.1967440894        8.9015319940
  C        17.1887169214        5.4668512292       10.2178669254
  N         5.0876969811        6.7613339635       19.7262437295
  C         5.3560220232        6.4933472554       21.0444514249
  N         5.0988422209       17.5665169145        8.9075934873
  C         5.3697314774       17.2916978270       10.2242218115
  N        17.4807770039        6.7597532264        3.0372800801
  C        17.2113286010        6.4921880628        1.7188996705
  N        17.4649027085       17.5563742714       13.8549563293
  C        17.1903108972       17.2876614052       12.5383421290
  N         5.0870712707        3.0426103227        6.7619239193
  C         5.3552927771        1.7242813240        6.4939496201
  N         5.1044399343       13.8632509636       17.5614287967
  C         5.3725658383       12.5456256386       17.2888703595
  N        17.4802820194       19.7188820622        6.7621274168
  C        17.2115393959       21.0375887404        6.4936835843
  N        17.4620845824        8.9021537427       17.5552533549
  C        17.1882883197       10.2187366563       17.2867897057
  N         5.0959502509       19.7264755369       16.0080419820
  C         5.3646802729       21.0447463930       16.2755157407
  N         5.1073987515        8.9064888795        5.2090336504
  C         5.3776926083       10.2231965592        5.4848076559
  N        17.4793254170        3.0382209882       16.0003666546
  C        17.2101486590        1.7199636325       16.2685438490
  N        17.4652584928       13.8540342565        5.1975872952
  C        17.1908093034       12.5375008936        5.4669881667
  N         2.9457153384       16.0114922249       17.5670493602
  C         1.6278651604       16.2785209566       17.2944858873
  N        13.7560403663       16.0278403363        6.7215582020
  C        12.4424724868       16.3090081151        6.4421233224
  N        19.6286211792       15.9996241748        5.2020418420
  C        20.9459807141       16.2705433640        5.4727294309
  N         8.8040843183       16.0639746483       16.0639756573
  C        10.1246482399       16.3267487383       16.3267494997
  N        19.6265224134        6.7586733083       17.5543486966
  C        20.9444789161        6.4888810677       17.2862714388
  N         8.8023818306        6.6922519081        6.6922512563
  C        10.1220108399        6.4273878575        6.4273876211
  N         2.9422821343        6.7617865702        5.2059929391
  C         1.6244191587        6.4923621413        5.4763416881
  N        13.7560388998        6.7215592816       16.0278407627
  C        12.4424712682        6.4421239882       16.3090088269
  N        15.9389679813        5.1928604882       19.7223642986
  C        16.2045138991        5.4688927901       21.0388073228
  N        15.8939419664       16.0119590297        8.8986237694
  C        16.1645857245       16.2784706192       10.2176769890
  N        15.9361664399       17.5682694855        3.0358586783
  C        16.2021457458       17.2923196054        1.7191574487
  N        15.8981880772        6.7422890198       13.8572707370
  C        16.1677661975        6.4759808261       12.5384217678
  N         6.6255394073        5.1887480128        3.0381163318
  C         6.3604174985        5.4672829120        1.7227862040
  N         6.6681609669       16.0138556820       13.8636105190
  C         6.3944022986       16.2786093538       12.5449233808
  N         6.6380916782       17.5779876761       19.7304771413
  C         6.3715251847       17.3006762554       21.0463069820
  N         6.6734282478        6.7546719114        8.9005524009
  C         6.4002523498        6.4941772322       10.2198568956
  N        19.6265235801       17.5543477704        6.7586724538
  C        20.9444797282       17.2862712375        6.4888803351
  N         8.8188256244       17.6179572285       17.6179557295
  C        10.1347447662       17.3425450316       17.3425440940
  N         2.9422819766        5.2059925025        6.7617865530
  C         1.6244190840        5.4763412690        6.4923623269
  N        13.7758136331        5.1714717261       17.5893898754
  C        12.4543317835        5.4305369525       17.3282693126
  N         2.9457149339       17.5670511433       16.0114910743
  C         1.6278654255       17.2944880122       16.2785192222
  N        13.7758152960       17.5893889041        5.1714718649
  C        12.4543330834       17.3282689238        5.4305364446
  N        19.6286208330        5.2020416952       15.9996241562
  C        20.9459795987        5.4727295290       16.2705429951
  N         8.8124369213        5.1378161656        5.1378176405
  C        10.1293339487        5.4114947222        5.4114959810
  N         6.6380914701       19.7304784710       17.5779873450
  C         6.3715241378       21.0463085923       17.3006759493
  N         6.6734289972        8.9005525444        6.7546715916
  C         6.4002518790       10.2198564129        6.4941780365
  N         6.6255393873        3.0381163732        5.1887486212
  C         6.3604174257        1.7227860337        5.4672832868
  N         6.6681613456       13.8636105198       16.0138549982
  C         6.3944031291       12.5449235874       16.2786087463
  N        15.9361650144        3.0358584763       17.5682702586
  C        16.2021451211        1.7191576772       17.2923198293
  N        15.8981893465       13.8572708415        6.7422886246
  C        16.1677666591       12.5384215650        6.4759810095
  N        15.9389694241       19.7223633477        5.1928607062
  C        16.2045148229       21.0388068390        5.4688930449
  N        15.8939408038        8.8986241828       16.0119590906
  C        16.1645850385       10.2176770526       16.2784707599
  N        17.4802811733        6.7621278027       19.7188828253
  C        17.2115383407        6.4936832002       21.0375891946
  N        17.4620852164       17.5552526893        8.9021535280
  C        17.1882891412       17.2867897337       10.2187367473
  N         5.0870710224        6.7619233666        3.0426112813
  C         5.3552922924        6.4939497205        1.7242818058
  N         5.1044398788       17.5614297796       13.8632497894
  C         5.3725656058       17.2888708323       12.5456255344
  N        17.4793258568       16.0003665145        3.0382210632
  C        17.2101492135       16.2685435213        1.7199630830
  N        17.4652579846        5.1975869642       13.8540341936
  C        17.1908087245        5.4669880981       12.5375014508
  N         5.0959507680       16.0080427491       19.7264740016
  C         5.3646817735       16.2755165240       21.0447452718
  N         5.1073980612        5.2090332944        8.9064893808
  C         5.3776930032        5.4848063464       10.2231970722
  N        17.4798683244       19.7201002587       15.9992228160
  C        17.2108945953       21.0387064450       16.2676473080
  N        17.4623112679        8.9015310558        5.1967442338
  C        17.1887172424       10.2178664953        5.4668513364
  N         5.0955063672        3.0430525100       16.0059446618
  C         5.3640800172        1.7248148879       16.2742315461
  N         5.1123561193       13.8627431679        5.2155569666
  C         5.3802250949       12.5448983406        5.4881910739
  N        17.4807771180        3.0372793836        6.7597540765
  C        17.2113292594        1.7188991285        6.4921889643
  N        17.4649026477       13.8549566879       17.5563736257
  C        17.1903104370       12.5383424169       17.2876608751
  N         5.0876969440       19.7262444614        6.7613341374
  C         5.3560223919       21.0444504821        6.4933469575
  N         5.0988420624        8.9075925377       17.5665161631
  C         5.3697310902       10.2242228198       17.2916979662
  N        19.6259658507        6.7597656651        5.2035989407
  C        20.9435119359        6.4914283610        5.4754450161
  N         8.8029924246        6.6953180512       16.0624858427
  C        10.1230933848        6.4301300119       16.3250812841
  N         2.9424443540        6.7576754018       17.5637619467
  C         1.6252150843        6.4882768740       17.2906526051
  N        13.7547774530        6.7205308585        6.7205302297
  C        12.4411412548        6.4405398814        6.4405396617
  N         2.9456045092       16.0070528282        5.2029547281
  C         1.6270631836       16.2741050345        5.4728220447
  N        13.7575080429       16.0303098847       16.0303106754
  C        12.4441633807       16.3112972076       16.3112978480
  N        19.6293488092       16.0015397432       17.5568459364
  C        20.9470722925       16.2737249461       17.2896452554
  N         8.8029945479       16.0624845778        6.6953179238
  C        10.1230943162       16.3250811335        6.4301288452
  N         6.6349967601       17.5776672917        3.0398831991
  C         6.3699599091       17.3001776040        1.7239718820
  N         6.6762508696        6.7633914440       13.8624851707
  C         6.4019607244        6.4985413136       12.5440969481
  N         6.6290121125        5.1906498516       19.7304360999
  C         6.3622666031        5.4676731597       21.0459676589
  N         6.6637324366       16.0204144844        8.9015607920
  C         6.3920677576       16.2821045118       10.2211042565
  N        15.9374273455       17.5674965821       19.7229576164
  C        16.2030592764       17.2916769505       21.0396686240
  N        15.8946482442        6.7403883609        8.8970721379
  C        16.1653517122        6.4755163549       10.2164137701
  N        15.9392813369        5.1902998026        3.0341191446
  C        16.2043360435        5.4674424525        1.7177258350
  N        15.8970936897       16.0124009507       13.8582886455
  C        16.1668087292       16.2791535884       12.5395644964
 Zn        14.6011992271       14.7273559327       14.7273558527
 Cl        13.3846873616       13.4876801827       13.4876800428
 Zn        14.6560213753        3.8854210810        3.8854216011
 Cl        13.4361045601        2.6459089072        2.6459099880
 Zn         3.8136057782       14.7146241876        3.9155098847
 Cl         2.5933144928       13.4589307081        2.6944554547
 Zn         3.8136036333        3.9155119571       14.7146247398
 Cl         2.5933133056        2.6944560521       13.4589310513
 Zn         7.9725944236        8.0054320139       14.7766766834
 Cl         9.4523144040        9.1573134823       13.7636630564
 Zn         7.9182505165       18.8962707717        3.8755848831
 Cl         9.0971672466       20.1545800616        2.6179532213
 Zn        18.7658043357        8.0529739294        3.9075861189
 Cl        20.0028822495        9.2907373133        2.6856823649
 Zn        18.7661037916       18.8444866905       14.7098343592
 Cl        20.0019494175       20.0676316291       13.4704844113
 Zn         7.9725959021       14.7766759921        8.0054314012
 Cl         9.4523164572       13.7636622632        9.1573111557
 Zn         7.9182478711        3.8755869268       18.8962704228
 Cl         9.0971647621        2.6179540969       20.1545792530
 Zn        18.7661039526       14.7098346057       18.8444853564
 Cl        20.0019497790       13.4704845645       20.0676308768
 Zn        18.7658043970        3.9075860621        8.0529745229
 Cl        20.0028816307        2.6856824114        9.2907383285
 Zn        14.5992367305        8.0190663757        8.0190663116
 Cl        13.3801174145        9.2587151445        9.2587145623
 Zn        14.6550923840       18.8732251105       18.8732251833
 Cl        13.4283850886       20.1088696003       20.1088696416
 Zn         3.7976612528        8.0529014759       18.8577313831
 Cl         2.5706263273        9.2934899902       20.0862742482
 Zn         3.7976621181       18.8577312499        8.0529006766
 Cl         2.5706274092       20.0862741017        9.2934895410
 Zn        14.6004868066       14.7263632237        8.0213505748
 Cl        13.3821534412       13.4880286440        9.2618222674
 Zn        14.6546121486        3.8900659564       18.8753872967
 Cl        13.4300304711        2.6507627547       20.1099228705
 Zn         3.8067849141       14.7180218068       18.8572109027
 Cl         2.5832878556       13.4724252805       20.0849952831
 Zn         3.8028410130        3.9142145971        8.0555642248
 Cl         2.5803114133        2.6925513239        9.3072863775
 Zn         7.9794289656        7.9928392996        7.9928398431
 Cl         9.4690246380        9.0701015691        9.0701101335
 Zn         7.9280802557       18.8919347557       18.8919343469
 Cl         9.1106176668       20.1480076935       20.1480062540
 Zn        18.7650626734        8.0543272530       18.8419180765
 Cl        20.0009682470        9.2902450415       20.0680317383
 Zn        18.7650637302       18.8419173363        8.0543270411
 Cl        20.0009688470       20.0680311147        9.2902445467
 Zn        14.6004858986        8.0213513177       14.7263632978
 Cl        13.3821527973        9.2618227970       13.4880286076
 Zn        14.6546133495       18.8753866698        3.8900657209
 Cl        13.4300315298       20.1099224278        2.6507625892
 Zn         3.8028414386        8.0555637664        3.9142155572
 Cl         2.5803110869        9.3072864811        2.6925519120
 Zn         3.8067849704       18.8572123588       14.7180215480
 Cl         2.5832882211       20.0849959702       13.4724238387
 Zn         7.9687879098       14.7681053782       14.7681053953
 Cl         9.4397286400       13.6773997759       13.6773958102
 Zn         7.9092097455        3.8644792756        3.8644801579
 Cl         9.0837777454        2.6050721778        2.6050726346
 Zn        18.7664664139       14.7103027319        3.9069162885
 Cl        20.0029194863       13.4697074721        2.6867172431
 Zn        18.7664657263        3.9069164282       14.7103029935
 Cl        20.0029183844        2.6867172938       13.4697081888
 Zn         5.8821824384        5.9609787587       16.8131756540
 Zn        16.6959811989       16.7824757458       16.7824753446
 Zn        16.6969560577        5.9645133491        5.9645140358
 Zn         5.8821836882       16.8131756011        5.9609782657
 Zn         5.8801669622        5.9572723001        5.9572724232
 Zn        16.6957650564       16.7821003148        5.9667175850
 Zn         5.8847580281       16.8106809329       16.8106794909
 Zn        16.6957632037        5.9667176040       16.7821007634
  N         3.6909229826        5.9802287740       16.7870225999
  N        14.5109225988        5.9478082584        5.9478085919
  N        18.8827606230       16.7777276868       16.7777275548
  N         8.0630727985       16.8455539353        5.9215821909
  N        18.8797327006        5.9807424470        5.9807436409
  N         8.0630717131        5.9215829618       16.8455542662
  N         3.6909250213       16.7870233383        5.9802287814
  N        14.5144303176       16.8031383083       16.8031381302
  N        16.7110056865        3.7822685075        5.9720857195
  N        16.6822767577       14.6028363981       16.7847123995
  N        16.7092159368       18.9746596527       16.7856926029
  N        16.6794299115        8.1528003936        5.9672278869
  N         5.8580419314       18.9825403310        5.9729946220
  N         5.8817437647        8.1577425270       16.7977675214
  N         5.8643573115        3.7875917567       16.7949549780
  N         5.8954630853       14.6098262801        5.9861792473
  N         5.8643590419       16.7949544482        3.7875913519
  N         5.8954617642        5.9861783814       14.6098258499
  N        16.7092158986       16.7856925398       18.9746588429
  N        16.6794297390        5.9672276112        8.1528012321
  N         5.8580417143        5.9729946862       18.9825405821
  N         5.8817449290       16.7977673357        8.1577424036
  N        16.7110056468        5.9720847520        3.7822688811
  N        16.6822768341       16.7847131183       14.6028363399
  N         5.8556305136        3.7864537796        5.9717268660
  N         5.8877828832       14.6104764696       16.7908143472
  N        16.7100996039       18.9737494383        5.9749677887
  N        16.6792529069        8.1539342216       16.7841259314
  N         5.8664255851       18.9825978281       16.7961305914
  N         5.8906604620        8.1565722089        5.9770362547
  N        16.7084408808        3.7836288677       16.7865562533
  N        16.6827414335       14.6018757325        5.9692967440
  N         3.6927052964       16.7906525164       16.7906500454
  N        14.5123760521       16.8036775945        5.9516276465
  N        18.8811170340       16.7762106576        5.9802113507
  N         8.0653055180       16.8428998762       16.8428995834
  N        18.8811149893        5.9802118700       16.7762115768
  N         8.0613312984        5.9142605062        5.9142608961
  N         3.6892346696        5.9836110069        5.9836109222
  N        14.5123749362        5.9516280606       16.8036784531
  N        16.7100982073        5.9749679415       18.9737497823
  N        16.6792539470       16.7841254424        8.1539343369
  N        16.7084418223       16.7865558599        3.7836284252
  N        16.6827405914        5.9692965921       14.6018761481
  N         5.8556297523        5.9717266851        3.7864546004
  N         5.8877824654       16.7908155577       14.6104754461
  N         5.8664261071       16.7961317444       18.9825968203
  N         5.8906597512        5.9770369382        8.1565719796
  C        11.2782489569       15.7693630267       15.7693648291
  H        11.2609593980       14.9940444688       14.9940476463
  C        11.2972261351        4.8680581876        4.8680602863
  H        11.3092016599        4.0928234748        4.0928263880
  C         0.4673606691       15.7214585939        4.9229388847
  H         0.4675510338       14.9450186547        4.1483331081
  C         0.4673604173        4.9229398295       15.7214585768
  H         0.4675500457        4.1483348077       14.9450192065
  C        11.2773650440        6.9832874260       15.7650038539
  H        11.2613178321        7.7580148854       14.9891351101
  C        11.2997615552       17.8886560918        4.8757669680
  H        11.3118798516       18.6667362040        4.1033145232
  C         0.4639578309        7.0426814431        4.9259603532
  H         0.4630659562        7.8186742712        4.1508399884
  C         0.4674458478       17.8422621625       15.7254533053
  H         0.4665961971       18.6172093532       14.9492830098
  C        11.2773669851       15.7650031150        6.9832866054
  H        11.2613190844       14.9891344423        7.7580137228
  C        11.2997595362        4.8757674004       17.8886562262
  H        11.3118780347        4.1033148769       18.6667361164
  C         0.4674451768       15.7254540460       17.8422606955
  H         0.4665967753       14.9492827637       18.6172086011
  C         0.4639574640        4.9259598173        7.0426816624
  H         0.4630663482        4.1508397433        7.8186740980
  C        11.2767109015        6.9834894280        6.9834881193
  H        11.2613622792        7.7587867029        7.7587839798
  C        11.3032061198       17.8850327449       17.8850310574
  H        11.3158143287       18.6603229487       18.6603203077
  C         0.4639475785        7.0391004774       17.8387818993
  H         0.4619679681        7.8147589936       18.6143053034
  C         0.4639496013       17.8387819774        7.0390996471
  H         0.4619688595       18.6143046521        7.8147573440
  C        15.6115005286       11.3792232419       15.7321106761
  H        14.8317936273       11.3805764930       14.9606617667
  C        15.6573318794        0.5579336723        4.9138318593
  H        14.8877995162        0.5577101571        4.1320977362
  C         4.8255620086       11.3854234443        4.9401086100
  H         4.0476091804       11.3876719911        4.1665577660
  C         4.8194891621        0.5643962197       15.7182146867
  H         4.0507623830        0.5635920074       14.9360907207
  C        15.6125018530       11.3778008527        7.0228558879
  H        14.8327696382       11.3787776857        7.7944216455
  C        15.6551688287        0.5590909604       17.8457635687
  H        14.8847277197        0.5588339426       18.6265493221
  C         4.8180072429       11.3862126593       17.8371310821
  H         4.0406474623       11.3883792492       18.6111186677
  C         4.8109574622        0.5641118892        7.0505913145
  H         4.0424796028        0.5634133728        7.8329244385
  C         6.9469608586       11.3816715450       15.7347344981
  H         7.7356308361       11.3778467610       14.9735154331
  C         6.9077623524        0.5646897847        4.9115702681
  H         7.6746909027        0.5654547092        4.1269788126
  C        17.7438136269       11.3772824691        4.9204577809
  H        18.5244312699       11.3767423159        4.1501328613
  C        17.7558109928        0.5596898883       15.7125609909
  H        18.5254532975        0.5606201401       14.9313181214
  C         6.9539357677       11.3806042888        7.0422283298
  H         7.7401147954       11.3768152338        7.8055714928
  C         6.9174306011        0.5656024357       17.8557250436
  H         7.6850367179        0.5666117837       18.6395766981
  C        17.7436946260       11.3779320915       17.8336687222
  H        18.5249134885       11.3770558355       18.6035390708
  C        17.7562252079        0.5586197476        7.0489647069
  H        18.5253607904        0.5595342694        7.8306640667
  C        15.6115011776       15.7321107681       11.3792228592
  H        14.8317941806       14.9606616981       11.3805763135
  C        15.6573311438        4.9138312853        0.5579343343
  H        14.8877990206        4.1320972948        0.5577108126
  C         4.8194903522       15.7182144837        0.5643950665
  H         4.0507630125       14.9360900424        0.5635908435
  C         4.8255628902        4.9401073524       11.3854246603
  H         4.0476102905        4.1665568912       11.3876721594
  C         6.9469607464       15.7347342295       11.3816722172
  H         7.7356308507       14.9735148204       11.3778477298
  C         6.9077619041        4.9115705425        0.5646887231
  H         7.6746902481        4.1269791400        0.5654539869
  C        17.7558115066       15.7125606456        0.5596892029
  H        18.5254542974       14.9313173498        0.5606192506
  C        17.7438131811        4.9204577562       11.3772831055
  H        18.5244303904        4.1501333406       11.3767430710
  C        15.6125012926        7.0228559101       11.3778008348
  H        14.8327689530        7.7944217942       11.3787777428
  C        15.6551693583       17.8457632316        0.5590908880
  H        14.8847283750       18.6265489503        0.5588341335
  C         4.8109571381        7.0505913404        0.5641133829
  H         4.0424785169        7.8329249888        0.5634142122
  C         4.8180074005       17.8371311473       11.3862120790
  H         4.0406485784       18.6111179884       11.3883782186
  C         6.9539361654        7.0422272140       11.3806042097
  H         7.7401152514        7.8055708536       11.3768153631
  C         6.9174321703       17.8557252535        0.5656008148
  H         7.6850378702       18.6395766230        0.5666102532
  C        17.7562247197        7.0489643533        0.5586203109
  H        18.5253606404        7.8306639645        0.5595348867
  C        17.7436949581       17.8336687220       11.3779319254
  H        18.5249135693       18.6035387656       11.3770556104
 Kr         8.6664888569       11.3640967920       11.3640956611
