     409
 i =     150, E =    -5183.7559488837
  N         2.7352138328        5.2049022177       16.0231120702
  C         1.4173618262        5.4757679727       16.2928546298
  N        13.5577733424        5.2122501993        5.2122514865
  C        12.2398226539        5.4814161494        5.4814159609
  N        19.4175287276       17.5810161151       16.0247362035
  C        20.7352946632       17.3089414996       16.2928725859
  N         8.5984898107       17.5796747944        5.2066594988
  C         9.9160442984       17.3083381154        5.4761257133
  N        19.4205967970        5.2049154027        6.7611939083
  C        20.7382895439        5.4754472085        6.4915183473
  N         8.5984877051        5.2066601273       17.5796762105
  C         9.9160421444        5.4761274594       17.3083403667
  N         2.7355750914       17.5792331019        6.7609797649
  C         1.4177594024       17.3088684893        6.4918457776
  N        13.5531550839       17.5797488086       17.5797484722
  C        12.2355941442       17.3095588405       17.3095581135
  N        15.7065656613        3.0546249062        5.2100928231
  C        15.9748528525        1.7364878131        5.4801105324
  N        15.7082295031       13.8721356113       16.0241341542
  C        15.9783486918       12.5545318772       16.2938070555
  N        15.7042809412       19.7366384380       17.5803163289
  C        15.9724307549       21.0543377983       17.3082968749
  N        15.7180738494        8.9179119664        6.7682954708
  C        15.9882802116       10.2351792014        6.4996058022
  N         6.4446198961       19.7352706831        5.2063769689
  C         6.1751794335       21.0530107378        5.4762027933
  N         6.4426959871        8.9156840232       16.0229560717
  C         6.1719166174       10.2331209720       16.2922591410
  N         6.4456715707        3.0512502892       17.5811416485
  C         6.1763048750        1.7336503772       17.3103857729
  N         6.4433529992       13.8708530324        6.7627113580
  C         6.1735993043       12.5534298728        6.4927118370
  N         4.8913593121       16.0242898960        3.0518079695
  C         5.1611971381       16.2936009297        1.7339980991
  N         4.8897404628        5.2053508986       13.8711882474
  C         5.1589037672        5.4755441205       12.5534935346
  N        17.2598055120       16.0236802362       19.7365110885
  C        16.9880571169       16.2918371126       21.0541815282
  N        17.2717951644        5.2108637219        8.9180763149
  C        17.0030245981        5.4825440705       10.2354843481
  N         4.8889555303        6.7625145707       19.7359076790
  C         5.1592887862        6.4923387677       21.0534313193
  N         4.8880652039       17.5801505526        8.9154919752
  C         5.1567423052       17.3090987042       10.2330642685
  N        17.2618307548        6.7660283239        3.0531090043
  C        16.9906858072        6.4961896763        1.7356371048
  N        17.2627476658       17.5807850132       13.8722814831
  C        16.9935639684       17.3104929879       12.5546848069
  N         4.8915509409        3.0517686021        6.7619350979
  C         5.1606843791        1.7340443517        6.4919403344
  N         4.8884256735       13.8711226980       17.5802045804
  C         5.1568895193       12.5534667814       17.3091921630
  N        17.2612357928       19.7372242024        6.7635289729
  C        16.9902930059       21.0549038610        6.4948897978
  N        17.2634121716        8.9170317073       17.5819801899
  C        16.9938727786       10.2344321749       17.3111374868
  N         4.8895196975       19.7356156067       16.0236953329
  C         5.1602063105       21.0532651488       16.2932264126
  N         4.8901586415        8.9154738958        5.2053272794
  C         5.1591392940       10.2331325792        5.4756062796
  N        17.2600740207        3.0526761997       16.0231419476
  C        16.9882501469        1.7350388438       16.2915325315
  N        17.2679320887       13.8732084832        5.2104030080
  C        17.0012041327       12.5555217554        5.4825715006
  N         2.7344879955       16.0236208592       17.5797191154
  C         1.4166310442       16.2923084813       17.3083536789
  N        13.5547004492       16.0213770998        6.7626570716
  C        12.2368722732       16.2908718442        6.4920171062
  N        19.4179781361       16.0264999312        5.2053979600
  C        20.7359335649       16.2947305322        5.4762897662
  N         8.5970543109       16.0234893371       16.0234900789
  C         9.9147861019       16.2934855278       16.2934855874
  N        19.4191536204        6.7623250144       17.5820706215
  C        20.7366709791        6.4926492057       17.3104976895
  N         8.5993079588        6.7634340313        6.7634343505
  C         9.9173481877        6.4945020184        6.4945018595
  N         2.7372364080        6.7618202132        5.2057314466
  C         1.4194430436        6.4918704138        5.4758264082
  N        13.5546980842        6.7626581706       16.0213781003
  C        12.2368699722        6.4920189910       16.2908738857
  N        15.7051250463        5.2076421919       19.7375717220
  C        15.9742184516        5.4788965238       21.0553195401
  N        15.7081038834       16.0255258012        8.9165063229
  C        15.9784165168       16.2945685388       10.2341005793
  N        15.7054682595       17.5800186684        3.0532358500
  C        15.9729221752       17.3081476703        1.7353438578
  N        15.7148709055        6.7681954092       13.8722846912
  C        15.9868064540        6.5000594364       12.5549028358
  N         6.4468989642        5.2061279518        3.0514406621
  C         6.1765152632        5.4758648080        1.7337297416
  N         6.4426442551       16.0232489169       13.8709585691
  C         6.1719594892       16.2923669417       12.5534271050
  N         6.4442388731       17.5807714017       19.7354855793
  C         6.1754202801       17.3100295172       21.0530808182
  N         6.4439383981        6.7630809727        8.9161598526
  C         6.1738468395        6.4928625543       10.2334277912
  N        19.4191563428       17.5820701251        6.7623240423
  C        20.7366737720       17.3104977089        6.4926480003
  N         8.5973771643       17.5797680672       17.5797684973
  C         9.9148770004       17.3095428874       17.3095425495
  N         2.7372373689        5.2057321629        6.7618180461
  C         1.4194436619        5.4758265543        6.4918693403
  N        13.5546739837        5.2084380792       17.5791993167
  C        12.2369615363        5.4770198427       17.3079264832
  N         2.7344881146       17.5797196950       16.0236204741
  C         1.4166311242       17.3083543286       16.2923082274
  N        13.5546759893       17.5791975120        5.2084359870
  C        12.2369635861       17.3079239459        5.4770173269
  N        19.4179749358        5.2053986038       16.0265009044
  C        20.7359302844        5.4762906963       16.2947309272
  N         8.6012492664        5.2071892776        5.2071902778
  C         9.9186823959        5.4784406657        5.4784407598
  N         6.4442389701       19.7354857538       17.5807715041
  C         6.1754208908       21.0530810189       17.3100288507
  N         6.4439364417        8.9161592363        6.7630787590
  C         6.1738470023       10.2334274763        6.4928598328
  N         6.4468990530        3.0514395202        5.2061248233
  C         6.1765123373        1.7337286344        5.4758589089
  N         6.4426450699       13.8709597350       16.0232509869
  C         6.1719606456       12.5534283990       16.2923698694
  N        15.7054647906        3.0532357743       17.5800164228
  C        15.9729187412        1.7353438019       17.3081449570
  N        15.7148734940       13.8722857374        6.7681936791
  C        15.9868077507       12.5549038118        6.5000571469
  N        15.7051251733       19.7375708452        5.2076443105
  C        15.9742178160       21.0553185983        5.4788993745
  N        15.7081004551        8.9165071087       16.0255262472
  C        15.9784135430       10.2341011245       16.2945697012
  N        17.2612344447        6.7635280616       19.7372250117
  C        16.9902927364        6.4948876867       21.0549046963
  N        17.2634148352       17.5819803563        8.9170318839
  C        16.9938752943       17.3111369223       10.2344321924
  N         4.8915486550        6.7619361900        3.0517693891
  C         5.1606858944        6.4919447945        1.7340451063
  N         4.8884254750       17.5802026124       13.8711212784
  C         5.1568887853       17.3091893874       12.5534654605
  N        17.2600766269       16.0231434757        3.0526758557
  C        16.9882529355       16.2915346421        1.7350386427
  N        17.2679302950        5.2104054133       13.8732080764
  C        17.0012033427        5.4825743138       12.5555213170
  N         4.8895199681       16.0236946927       19.7356161371
  C         5.1602061767       16.2932265996       21.0532655616
  N         4.8901605840        5.2053297010        8.9154725525
  C         5.1591388222        5.4756092359       10.2331314158
  N        17.2598043430       19.7365111979       16.0236786453
  C        16.9880550014       21.0541815813       16.2918348233
  N        17.2717941769        8.9180764426        5.2108621066
  C        17.0030237392       10.2354845886        5.4825419286
  N         4.8913569614        3.0518079269       16.0242900783
  C         5.1611960899        1.7339979811       16.2936002215
  N         4.8897434940       13.8711898665        5.2053517784
  C         5.1589067681       12.5534949099        5.4755430664
  N        17.2618306891        3.0531080777        6.7660302408
  C        16.9906854606        1.7356361306        6.4961921676
  N        17.2627470336       13.8722814924       17.5807860038
  C        16.9935623425       12.5546849386       17.3104941142
  N         4.8889574545       19.7359073568        6.7625153027
  C         5.1592870982       21.0534308081        6.4923349884
  N         4.8880632598        8.9154931590       17.5801505396
  C         5.1567420947       10.2330654507       17.3091005872
  N        19.4205961593        6.7611933976        5.2049168930
  C        20.7382889690        6.4915180727        5.4754482143
  N         8.5979887777        6.7620397401       16.0225456705
  C         9.9157422847        6.4915112519       16.2916101887
  N         2.7355726357        6.7609798927       17.5792321466
  C         1.4177567731        6.4918464692       17.3088677790
  N        13.5564603999        6.7682843621        6.7682850865
  C        12.2387104809        6.4974668325        6.4974664359
  N         2.7352172872       16.0231124828        5.2049027829
  C         1.4173651201       16.2928549499        5.4757677582
  N        13.5538142724       16.0237680050       16.0237674398
  C        12.2359120631       16.2935474761       16.2935469442
  N        19.4175288582       16.0247353103       17.5810153940
  C        20.7352946812       16.2928722463       17.3089408838
  N         8.5979911781       16.0225444623        6.7620395537
  C         9.9157446028       16.2916082752        6.4915098740
  N         6.4456734038       17.5811417519        3.0512497495
  C         6.1763055165       17.3103869456        1.7336498943
  N         6.4433508992        6.7627098992       13.8708536844
  C         6.1735969895        6.4927125002       12.5534301303
  N         6.4446188968        5.2063775516       19.7352718510
  C         6.1751819469        5.4762078036       21.0530117187
  N         6.4426976306       16.0229553973        8.9156828210
  C         6.1719165621       16.2922568029       10.2331197627
  N        15.7042830961       17.5803188627       19.7366386681
  C        15.9724335992       17.3082998329       21.0543380218
  N        15.7180741680        6.7682964602        8.9179110051
  C        15.9882805424        6.4996075126       10.2351783078
  N        15.7065668059        5.2100894721        3.0546264329
  C        15.9748539506        5.4801071153        1.7364891168
  N        15.7082306875       16.0241326858       13.8721346530
  C        15.9783508396       16.2938055586       12.5545311660
 Zn        14.4157806108       14.7297926593       14.7297922038
 Cl        13.1861905755       13.4961335288       13.4961335256
 Zn        14.4157548534        3.9181825058        3.9181863910
 Cl        13.1792471813        2.6876017130        2.6876042066
 Zn         3.5996396475       14.7302601341        3.9103473213
 Cl         2.3692493575       13.4972424149        2.6766545962
 Zn         3.5996373508        3.9103470945       14.7302606298
 Cl         2.3692495812        2.6766520873       13.4972434325
 Zn         7.7354784295        8.0556779075       14.7291017568
 Cl         8.9678462480        9.2885229603       13.4973552975
 Zn         7.7364939452       18.8741762910        3.9126969957
 Cl         8.9713146953       20.1076092053        2.6839669224
 Zn        18.5573564878        8.0558014835        3.9122408123
 Cl        19.7895058407        9.2891119241        2.6806327784
 Zn        18.5541584972       18.8748790922       14.7316591228
 Cl        19.7857029002       20.1067779120       13.4981452194
 Zn         7.7354810350       14.7290997184        8.0556786039
 Cl         8.9678510385       13.4973577877        9.2885264859
 Zn         7.7364921892        3.9126972015       18.8741772626
 Cl         8.9713150014        2.6839670748       20.1076080639
 Zn        18.5541587725       14.7316587301       18.8748796823
 Cl        19.7857030734       13.4981473840       20.1067814041
 Zn        18.5573563752        3.9122415686        8.0558019452
 Cl        19.7895027736        2.6806321558        9.2891135174
 Zn        14.4268144675        8.0600000267        8.0599993054
 Cl        13.2047979757        9.2979283367        9.2979280208
 Zn        14.4119977893       18.8739814503       18.8739814882
 Cl        13.1772490270       20.1050334523       20.1050319385
 Zn         3.5959787464        8.0543620416       18.8737734445
 Cl         2.3611384778        9.2873111722       20.1029620504
 Zn         3.5959788839       18.8737741729        8.0543629741
 Cl         2.3611398818       20.1029640110        9.2873124251
 Zn        14.4183101870       14.7287809231        8.0566866224
 Cl        13.1914311853       13.4938164484        9.2919535520
 Zn        14.4137103647        3.9143815492       18.8740023018
 Cl        13.1782633794        2.6817547165       20.1029529290
 Zn         3.5969720872       14.7304008308       18.8740773522
 Cl         2.3644278133       13.4974880257       20.1056315538
 Zn         3.5996512401        3.9108687559        8.0544973197
 Cl         2.3668844487        2.6792944714        9.2873012108
 Zn         7.7361467309        8.0561287239        8.0561269278
 Cl         8.9686189004        9.2884885132        9.2884852179
 Zn         7.7359306150       18.8738798860       18.8738796202
 Cl         8.9706093408       20.1050312098       20.1050333640
 Zn        18.5552523444        8.0552154166       18.8753788616
 Cl        19.7854338227        9.2892016999       20.1082415263
 Zn        18.5552551548       18.8753788417        8.0552154461
 Cl        19.7854384573       20.1082421243        9.2891997331
 Zn        14.4183059348        8.0566871423       14.7287810069
 Cl        13.1914255897        9.2919529922       13.4938170455
 Zn        14.4137123631       18.8740025056        3.9143809098
 Cl        13.1782634832       20.1029521981        2.6817548986
 Zn         3.5996471748        8.0544993841        3.9108664556
 Cl         2.3668802717        9.2873037216        2.6792928087
 Zn         3.5969731291       18.8740772175       14.7303985834
 Cl         2.3644254628       20.1056297600       13.4974869037
 Zn         7.7349525659       14.7292934179       14.7292928725
 Cl         8.9675575713       13.4971838485       13.4971891468
 Zn         7.7379905750        3.9126444767        3.9126433130
 Cl         8.9725130304        2.6814018866        2.6813967295
 Zn        18.5550336798       14.7321781950        3.9120994352
 Cl        19.7881818677       13.4982622229        2.6822078103
 Zn        18.5550315731        3.9121012558       14.7321778263
 Cl        19.7881833509        2.6822108312       13.4982642735
 Zn         5.6707417621        5.9878644252       16.8064668069
 Zn        16.4890570893       16.8078705521       16.8078699730
 Zn        16.4928766073        5.9914455579        5.9914468648
 Zn         5.6707449247       16.8064696971        5.9878667078
 Zn         5.6720638105        5.9877516208        5.9877524910
 Zn        16.4901479686       16.8082377707        5.9893704466
 Zn         5.6701628197       16.8063972973       16.8064011985
 Zn        16.4901460041        5.9893709408       16.8082376666
  N         3.4819278872        5.9825323731       16.8015012860
  N        14.3036566686        5.9904615665        5.9904633992
  N        18.6712180840       16.8040890042       16.8040891810
  N         7.8519667641       16.8018408044        5.9847933100
  N        18.6743606204        5.9829883468        5.9829895318
  N         7.8519644105        5.9847929824       16.8018416209
  N         3.4819309013       16.8015020952        5.9825328693
  N        14.3001003277       16.8019639956       16.8019636327
  N        16.4850624151        3.8006475734        5.9879385780
  N        16.4852483001       14.6189717053       16.8027089044
  N        16.4832145395       18.9901928472       16.8032042257
  N        16.4943795266        8.1715238685        5.9889681972
  N         5.6666372910       18.9891474082        5.9845365230
  N         5.6660121297        8.1691949751       16.8020964396
  N         5.6682927710        3.7982898716       16.8031712063
  N         5.6667447101       14.6177950436        5.9840316561
  N         5.6682953280       16.8031708660        3.7982896869
  N         5.6667424536        5.9840292537       14.6177944657
  N        16.4832157765       16.8032059055       18.9901929111
  N        16.4943800960        5.9889691319        8.1715233439
  N         5.6666339188        5.9845340661       18.9891480665
  N         5.6660148851       16.8020970761        8.1691938614
  N        16.4850629763        5.9879362573        3.8006487399
  N        16.4852486446       16.8027078008       14.6189711989
  N         5.6694761906        3.7983498993        5.9841594858
  N         5.6661812325       14.6177857074       16.8023014482
  N        16.4838057189       18.9909848875        5.9849161310
  N        16.4855834809        8.1703981605       16.8042014851
  N         5.6663986102       18.9891039612       16.8027000762
  N         5.6673720401        8.1693663028        5.9842436607
  N        16.4841215518        3.7996869408       16.8026850767
  N        16.4898852526       14.6195751252        5.9881656663
  N         3.4810297964       16.8025081365       16.8025076038
  N        14.3012710838       16.8010074412        5.9861069609
  N        18.6722612124       16.8051543463        5.9835186244
  N         7.8509504351       16.8017437507       16.8017446375
  N        18.6722581900        5.9835192915       16.8051553550
  N         7.8539993169        5.9848673610        5.9848682640
  N         3.4837719720        5.9837379182        5.9837360037
  N        14.3012689243        5.9861081316       16.8010082594
  N        16.4838043513        5.9849151349       18.9909856923
  N        16.4855866028       16.8042017420        8.1703978210
  N        16.4841244871       16.8026865950        3.7996868459
  N        16.4898824523        5.9881673806       14.6195743500
  N         5.6694731000        5.9841597867        3.7983509606
  N         5.6661811142       16.8023000342       14.6177845233
  N         5.6663988221       16.8026993460       18.9891041987
  N         5.6673752092        5.9842456835        8.1693660027
  C        11.0754112296       15.7431645676       15.7431644626
  H        11.0753154826       14.9676094386       14.9676097877
  C        11.0805793988        4.9296233237        4.9296228956
  H        11.0828316381        4.1540471380        4.1540465245
  C         0.2561346766       15.7432087329        4.9260631979
  H         0.2549879496       14.9674303469        4.1507367095
  C         0.2561309728        4.9260636180       15.7432089492
  H         0.2549828163        4.1507367366       14.9674310274
  C        11.0760647091        7.0414559633       15.7402800604
  H        11.0753547402        7.8166130027       14.9643447697
  C        11.0768079841       17.8587113361        4.9264779395
  H        11.0772388926       18.6350318709        4.1516708123
  C         0.2588800075        7.0421696690        4.9255172204
  H         0.2587800894        7.8180056401        4.1502524196
  C         0.2559879386       17.8583175285       15.7417487783
  H         0.2559480828       18.6336391718       14.9659655247
  C        11.0760670872       15.7402781552        7.0414543395
  H        11.0753567103       14.9643434207        7.8166119559
  C        11.0768059674        4.9264807247       17.8587143324
  H        11.0772370000        4.1516742058       18.6350354084
  C         0.2559880170       15.7417483377       17.8583165146
  H         0.2559479567       14.9659646967       18.6336377480
  C         0.2588811791        4.9255162762        7.0421688725
  H         0.2587825014        4.1502508449        7.8180042259
  C        11.0767411221        7.0462408171        7.0462402680
  H        11.0740327819        7.8217589475        7.8217587274
  C        11.0752427388       17.8599112441       17.8599101659
  H        11.0751539346       18.6354700561       18.6354682668
  C         0.2577710116        7.0429430558       17.8595406618
  H         0.2587890446        7.8188079029       18.6347751716
  C         0.2577735338       17.8595412588        7.0429418272
  H         0.2587913201       18.6347757925        7.8188066643
  C        15.4284449589       11.3941496690       15.7429851982
  H        14.6534906620       11.3937199607       14.9667574136
  C        15.4238396898        0.5763604201        4.9294454954
  H        14.6481315108        0.5771266734        4.1540463879
  C         4.6090385074       11.3932693602        4.9244218495
  H         3.8343278649       11.3931519541        4.1479929466
  C         4.6109909490        0.5739575256       15.7422204150
  H         3.8362854376        0.5745911493       14.9657822767
  C        15.4384240677       11.3945616601        7.0520935398
  H        14.6640131048       11.3934105001        7.8288316188
  C        15.4220255126        0.5750206308       17.8582970256
  H        14.6467875511        0.5753415964       18.6341685103
  C         4.6064963550       11.3933015879       17.8598670186
  H         3.8315775041       11.3933187614       18.6360752484
  C         4.6096559643        0.5741605446        7.0427366251
  H         3.8343802539        0.5749699764        7.8185968760
  C         6.7217778925       11.3933118636       15.7411130074
  H         7.4968818304       11.3932978266       14.9650798681
  C         6.7263653755        0.5730227122        4.9256819164
  H         7.5022834541        0.5722929693        4.1504786512
  C        17.5524366564       11.3959458964        4.9316958872
  H        18.3266521863       11.3966123605        4.1548484745
  C        17.5377175352        0.5745245473       15.7404914926
  H        18.3129961960        0.5742866459       14.9646390548
  C         6.7235536326       11.3935389260        7.0441008726
  H         7.4981857337       11.3936237125        7.8205949718
  C         6.7261895107        0.5731140973       17.8607828405
  H         7.5014497034        0.5725417878       18.6366312802
  C        17.5440476296       11.3947941317       17.8614858998
  H        18.3191867079       11.3951019362       18.6374411639
  C        17.5405468501        0.5749074714        7.0462363323
  H        18.3160414802        0.5742426858        7.8218685370
  C        15.4284479406       15.7429833184       11.3941487974
  H        14.6534941756       14.9667549795       11.3937201066
  C        15.4238412958        4.9294418452        0.5763614529
  H        14.6481337760        4.1540421444        0.5771267655
  C         4.6109916792       15.7422204595        0.5739578978
  H         3.8362873747       14.9657810849        0.5745915769
  C         4.6090358415        4.9244248032       11.3932672695
  H         3.8343241544        4.1479968367       11.3931483937
  C         6.7217771029       15.7411100984       11.3933104717
  H         7.4968816918       14.9650775964       11.3932964899
  C         6.7263695610        4.9256888564        0.5730239670
  H         7.5022874316        4.1504855832        0.5722935811
  C        17.5377198381       15.7404934718        0.5745241645
  H        18.3129980758       14.9646406199        0.5742853968
  C        17.5524372226        4.9316988050       11.3959460061
  H        18.3266532075        4.1548518033       11.3966138722
  C        15.4384234539        7.0520953853       11.3945601330
  H        14.6640120080        7.8288329923       11.3934079337
  C        15.4220292067       17.8583005763        0.5750208998
  H        14.6467919905       18.6341727954        0.5753417253
  C         4.6096573251        7.0427406564        0.5741611470
  H         3.8343790352        7.8185982231        0.5749699089
  C         4.6064962643       17.8598648095       11.3933000283
  H         3.8315785089       18.6360740965       11.3933175346
  C         6.7235521056        7.0441027805       11.3935403430
  H         7.4981844848        7.8205967292       11.3936274268
  C         6.7261891748       17.8607842564        0.5731129742
  H         7.5014493851       18.6366327291        0.5725375925
  C        17.5405465815        7.0462342691        0.5749081903
  H        18.3160406028        7.8218670815        0.5742419215
  C        17.5440496168       17.8614852074       11.3947943965
  H        18.3191885159       18.6374406487       11.3951032063
 Xe        17.7174527958       10.3692808960       10.3692796519
