     409
 i =     150, E =    -5183.7374471275
  N         2.8816036859        5.2023272554       16.0036697111
  C         1.5634914369        5.4713663245       16.2708239586
  N        13.7149572237        5.1484793218        5.1484826489
  C        12.3921098003        5.4057547232        5.4057584960
  N        19.5674325378       17.5502618930       15.9953849454
  C        20.8849198498       17.2848092815       16.2689626795
  N         8.7526487203       17.6409111996        5.1241691851
  C        10.0691279735       17.3613470087        5.3967014358
  N        19.5628526865        5.1997807089        6.7555928113
  C        20.8802097140        5.4718856862        6.4878219402
  N         8.7526417204        5.1241682641       17.6409092468
  C        10.0691196750        5.3967002798       17.3613488249
  N         2.8779006606       17.5585631907        6.7589171052
  C         1.5610279865       17.2861128326        6.4880326322
  N        13.7193844142       17.5923499040       17.5923491842
  C        12.3967655598       17.3350884663       17.3350879877
  N        15.8878367456        3.0265412890        5.1812619795
  C        16.1542105671        1.7107328555        5.4586032545
  N        15.8312143639       13.8539710851       16.0104689600
  C        16.1013893656       12.5346214727       16.2755966698
  N        15.8860921812       19.7175501835       17.5661096162
  C        16.1538214034       21.0336242358       17.2916437724
  N        15.8286156256        8.8912628721        6.7305359964
  C        16.1002814388       10.2109582260        6.4658790354
  N         6.5520052025       19.7285361154        5.1800103738
  C         6.2847258137       21.0431924952        5.4586211807
  N         6.6062286791        8.8968241955       16.0283651127
  C         6.3386264369       10.2176096427       16.2903769201
  N         6.5568689136        3.0343516791       17.5814640133
  C         6.2918468146        1.7192886825       17.3023184345
  N         6.6197587063       13.8619953121        6.7505218979
  C         6.3478359765       12.5425929956        6.4841402223
  N         5.0237268922       16.0036658963        3.0390283247
  C         5.2903312014       16.2722852514        1.7206696871
  N         5.0483636585        5.2095702061       13.8610873920
  C         5.3208112387        5.4789135082       12.5434010103
  N        17.4246974416       15.9943741903       19.7137603865
  C        17.1591571570       16.2653141819       21.0324721321
  N        17.4006681977        5.1909002395        8.8957224985
  C        17.1265869499        5.4601585894       10.2121595677
  N         5.0179602159        6.7580667263       19.7228549659
  C         5.2834971111        6.4890657303       21.0410953736
  N         5.0352232273       17.5674286244        8.9066625394
  C         5.3111074136       17.2947694466       10.2226165090
  N        17.4253202314        6.7545629959        3.0313577225
  C        17.1587010756        6.4857840689        1.7126638376
  N        17.4035366776       17.5501696954       13.8492063152
  C        17.1277555045       17.2812958535       12.5327418754
  N         5.0161951065        3.0385778043        6.7581070930
  C         5.2821905496        1.7201774939        6.4893017692
  N         5.0433168580       13.8613875988       17.5593651657
  C         5.3152479722       12.5439217238       17.2905538219
  N        17.4243931960       19.7126503450        6.7589824564
  C        17.1586792465       21.0314485998        6.4883565611
  N        17.3997699351        8.8964037467       17.5475271826
  C        17.1251350868       10.2128251871       17.2794084685
  N         5.0256437739       19.7229158370       16.0036994670
  C         5.2916842803       21.0411961105       16.2726447296
  N         5.0417541797        8.9049626091        5.2009469087
  C         5.3174944482       10.2210875379        5.4743527725
  N        17.4249698988        3.0319906726       15.9977892899
  C        17.1587789555        1.7134760704       16.2674720931
  N        17.4045597320       13.8489883462        5.1894467851
  C        17.1292617587       12.5324326330        5.4588748518
  N         2.8821589991       16.0068808460       17.5620153838
  C         1.5646514727       16.2746281524       17.2904898440
  N        13.6905627510       16.0339361728        6.7060088468
  C        12.3780738707       16.3199910352        6.4242252027
  N        19.5666113687       15.9949315534        5.1980061103
  C        20.8835432496       16.2663665393        5.4690262283
  N         8.7399551240       16.0766413735       16.0766420107
  C        10.0611559863       16.3385610156       16.3385610802
  N        19.5632168620        6.7558065831       17.5477270916
  C        20.8811397458        6.4862584113       17.2808858750
  N         8.7368647115        6.6664160428        6.6664182598
  C        10.0579098433        6.4037702094        6.4037730470
  N         2.8777930152        6.7608953195        5.2047322762
  C         1.5602714796        6.4904004396        5.4743403405
  N        13.6905625599        6.7060092940       16.0339419812
  C        12.3780770405        6.4242259287       16.3199972946
  N        15.8869405975        5.1861871745       19.7169341882
  C        16.1541300658        5.4612868125       21.0328037814
  N        15.8278262849       16.0079733929        8.8921772189
  C        16.0988639475       16.2737143314       10.2117463448
  N        15.8855399033       17.5691213153        3.0281850474
  C        16.1531772663       17.2935996672        1.7120653662
  N        15.8320011172        6.7291702779       13.8534373578
  C        16.1028357114        6.4645733392       12.5340315123
  N         6.5481551061        5.1786248385        3.0333430317
  C         6.2826613695        5.4582259963        1.7187386219
  N         6.6140540556       16.0189807410       13.8619016562
  C         6.3424278056       16.2856741475       12.5426378861
  N         6.5614021905       17.5794817821       19.7279983786
  C         6.2942212392       17.3018755901       21.0431189427
  N         6.6141808264        6.7398209640        8.8953116319
  C         6.3450985309        6.4787417364       10.2162271848
  N        19.5632211337       17.5477246803        6.7558069904
  C        20.8811459934       17.2808814299        6.4862579393
  N         8.7566471936       17.6306077125       17.6306093527
  C        10.0728562548       17.3544008379       17.3544013229
  N         2.8778025763        5.2047405722        6.7608841794
  C         1.5602978465        5.4743462985        6.4903924722
  N        13.7162181675        5.1541955191       17.5942889370
  C        12.3934576534        5.4120808136       17.3381547012
  N         2.8821604672       17.5620108309       16.0068820592
  C         1.5646530741       17.2904869074       16.2746295896
  N        13.7162205421       17.5942834463        5.1541950002
  C        12.3934647735       17.3381473138        5.4120820709
  N        19.5666087527        5.1980064296       15.9949341232
  C        20.8835448352        5.4690247449       16.2663687021
  N         8.7503797815        5.1131592953        5.1131661237
  C        10.0673008254        5.3880913135        5.3880966087
  N         6.5614004624       19.7279980666       17.5794834089
  C         6.2942208904       21.0431200517       17.3018761949
  N         6.6141735242        8.8953106879        6.7398126346
  C         6.3450839856       10.2162217487        6.4787447679
  N         6.5481593984        3.0333369329        5.1786236913
  C         6.2826618273        1.7187287791        5.4582260361
  N         6.6140522440       13.8619017108       16.0189823607
  C         6.3424280650       12.5426390209       16.2856791274
  N        15.8855401732        3.0281860784       17.5691208964
  C        16.1531749366        1.7120675749       17.2935977534
  N        15.8319995490       13.8534348819        6.7291696592
  C        16.1028346632       12.5340273021        6.4645706732
  N        15.8869372042       19.7169335387        5.1861882832
  C        16.1541289251       21.0328029655        5.4612879968
  N        15.8278238544        8.8921764845       16.0079747335
  C        16.0988606986       10.2117438049       16.2737167405
  N        17.4243927776        6.7589848437       19.7126551144
  C        17.1586785874        6.4883579325       21.0314547403
  N        17.3997742021       17.5475239269        8.8964021585
  C        17.1251390739       17.2794045966       10.2128209787
  N         5.0161926574        6.7581077676        3.0385780802
  C         5.2821888383        6.4893036155        1.7201698131
  N         5.0433172565       17.5593614298       13.8613871587
  C         5.3152472307       17.2905473832       12.5439217917
  N        17.4249714002       15.9977903582        3.0319893337
  C        17.1587806538       16.2674758047        1.7134781999
  N        17.4045610931        5.1894479716       13.8489881387
  C        17.1292640847        5.4588762762       12.5324288806
  N         5.0256441594       16.0036990017       19.7229185172
  C         5.2916854033       16.2726461545       21.0411985139
  N         5.0417626613        5.2009530085        8.9049546041
  C         5.3175081720        5.4743471340       10.2210730226
  N        17.4246974836       19.7137620112       15.9943702826
  C        17.1591555398       21.0324733064       16.2653093523
  N        17.4006695966        8.8957220133        5.1908983087
  C        17.1265876145       10.2121588429        5.4601561159
  N         5.0237232655        3.0390278182       16.0036662592
  C         5.2903280012        1.7206653806       16.2722826338
  N         5.0483644757       13.8610909809        5.2095648343
  C         5.3208034132       12.5434101431        5.4789227443
  N        17.4253212912        3.0313540349        6.7545694033
  C        17.1587031349        1.7126574020        6.4857889461
  N        17.4035342291       13.8492078412       17.5501697847
  C        17.1277518421       12.5327460427       17.2812967320
  N         5.0179647725       19.7228516330        6.7580672526
  C         5.2834987899       21.0410939591        6.4890646108
  N         5.0352193907        8.9066623282       17.5674319825
  C         5.3111063900       10.2226165672       17.2947770060
  N        19.5628474448        6.7555908286        5.1997850773
  C        20.8801906788        6.4878171885        5.4718921479
  N         8.7367748194        6.6718715925       16.0811792815
  C        10.0579873800        6.4089410405       16.3420631749
  N         2.8778959326        6.7589182750       17.5585676557
  C         1.5610192800        6.4880354784       17.2861190053
  N        13.6903424728        6.7044376525        6.7044402152
  C        12.3778387303        6.4208265358        6.4208294930
  N         2.8816075726       16.0036658614        5.2023254886
  C         1.5634943470       16.2708210093        5.4713662896
  N        13.6935152308       16.0359571526       16.0359557606
  C        12.3811322448       16.3198635204       16.3198627390
  N        19.5674305939       15.9953855419       17.5502608323
  C        20.8849162222       16.2689627280       17.2848091377
  N         8.7367766016       16.0811784379        6.6718717416
  C        10.0579825730       16.3420621941        6.4089391190
  N         6.5568743732       17.5814624927        3.0343502528
  C         6.2918484660       17.3023182732        1.7192874164
  N         6.6197555322        6.7505273883       13.8619942639
  C         6.3478451479        6.4841338540       12.5425910061
  N         6.5520008193        5.1800109664       19.7285383546
  C         6.2847279054        5.4586191773       21.0431985926
  N         6.6062341188       16.0283621609        8.8968237056
  C         6.3386263466       16.2903718482       10.2176061180
  N        15.8860926109       17.5661142024       19.7175499567
  C        16.1538240591       17.2916480067       21.0336228301
  N        15.8286142682        6.7305374604        8.8912639739
  C        16.1002799835        6.4658823076       10.2109608606
  N        15.8878375935        5.1812535988        3.0265416008
  C        16.1542100857        5.4585971076        1.7107320386
  N        15.8312151928       16.0104708526       13.8539716820
  C        16.1013918528       16.2755968455       12.5346241885
 Zn        14.5343958699       14.7305335494       14.7305309534
 Cl        13.3072265769       13.4958483003       13.4958397727
 Zn        14.6050045562        3.8709906228        3.8709923734
 Cl        13.3953418972        2.6268192444        2.6268294781
 Zn         3.7428666931       14.7120708526        3.9120059298
 Cl         2.5195111299       13.4559953845        2.6949951896
 Zn         3.7428653646        3.9120107502       14.7120697016
 Cl         2.5195095593        2.6950004781       13.4559956834
 Zn         7.9096357121        7.9827948801       14.7977804639
 Cl         9.4353802387        9.1159859989       13.8341577434
 Zn         7.8438888165       18.9084003744        3.8537612507
 Cl         9.0034104033       20.1759437044        2.5895969741
 Zn        18.7072279379        8.0496880675        3.9032978130
 Cl        19.9463556197        9.2877889752        2.6837273927
 Zn        18.7075981208       18.8372733753       14.7032238571
 Cl        19.9440220290       20.0602575658       13.4642030406
 Zn         7.9096393891       14.7977776927        7.9827908786
 Cl         9.4353800502       13.8341499262        9.1159833957
 Zn         7.8438894518        3.8537603417       18.9084027297
 Cl         9.0034056422        2.5895939112       20.1759509980
 Zn        18.7075964813       14.7032240337       18.8372725045
 Cl        19.9440186286       13.4641982245       20.0602547366
 Zn        18.7072261293        3.9032962779        8.0496939394
 Cl        19.9463510314        2.6837318029        9.2877989479
 Zn        14.5321220131        8.0074525746        8.0074508085
 Cl        13.3041623968        9.2424435781        9.2424409805
 Zn        14.6028698743       18.8748131797       18.8748119309
 Cl        13.3900044497       20.1171985719       20.1171962350
 Zn         3.7330343731        8.0532079798       18.8548142229
 Cl         2.5006721150        9.2924241332       20.0795575225
 Zn         3.7330336978       18.8548083627        8.0532083230
 Cl         2.5006755265       20.0795521777        9.2924288929
 Zn        14.5333738468       14.7281614695        8.0075510448
 Cl        13.3065447412       13.4901536521        9.2399604871
 Zn        14.6029116759        3.8787293552       18.8772426250
 Cl        13.3917856979        2.6359956936       20.1216427711
 Zn         3.7399203081       14.7136869062       18.8506114662
 Cl         2.5141345902       13.4678286610       20.0761533984
 Zn         3.7358688315        3.9086228777        8.0542697175
 Cl         2.5066329909        2.6905788190        9.3028243213
 Zn         7.9128056716        7.9621249011        7.9621140507
 Cl         9.4512720669        9.0047693690        9.0047462646
 Zn         7.8503881728       18.8989519497       18.8989548254
 Cl         9.0156044349       20.1630684446       20.1630718589
 Zn        18.7054407734        8.0531035925       18.8346990078
 Cl        19.9427340861        9.2917518004       20.0564555585
 Zn        18.7054433389       18.8346973760        8.0531019661
 Cl        19.9427307563       20.0564586952        9.2917531276
 Zn        14.5333700682        8.0075489293       14.7281640733
 Cl        13.3065395904        9.2399620537       13.4901586483
 Zn        14.6029097580       18.8772404607        3.8787303239
 Cl        13.3917801626       20.1216374266        2.6359968705
 Zn         3.7358691740        8.0542769710        3.9086148259
 Cl         2.5066408240        9.3028246931        2.6905640786
 Zn         3.7399217646       18.8506023392       14.7136880554
 Cl         2.5141353501       20.0761506406       13.4678358934
 Zn         7.9089542583       14.7784473580       14.7784491837
 Cl         9.4274062098       13.7223297190       13.7223327416
 Zn         7.8372702048        3.8471483730        3.8471469763
 Cl         8.9849900000        2.5760726463        2.5760709351
 Zn        18.7090813315       14.7059876405        3.9016849157
 Cl        19.9474124034       13.4682898472        2.6801479629
 Zn        18.7090776728        3.9016868723       14.7059889621
 Cl        19.9474119491        2.6801537635       13.4682931087
 Zn         5.8081195806        5.9543761433       16.8160075340
 Zn        16.6300186512       16.7791818471       16.7791803247
 Zn        16.6297353354        5.9581161653        5.9581213240
 Zn         5.8081414682       16.8160070392        5.9543769281
 Zn         5.8033543014        5.9502906433        5.9502928043
 Zn        16.6291540987       16.7787352713        5.9592326250
 Zn         5.8171230396       16.8114542072       16.8114550678
 Zn        16.6291599873        5.9592337484       16.7787388097
  N         3.6263909947        5.9810521134       16.7824062503
  N        14.4489483642        5.9329297219        5.9329326475
  N        18.8206499233       16.7705634913       16.7705641527
  N         7.9984163586       16.8642020905        5.8978422165
  N        18.8163364602        5.9765583408        5.9765557319
  N         7.9984116902        5.8978384891       16.8642032742
  N         3.6263962216       16.7824024524        5.9810506747
  N        14.4525925590       16.8075360187       16.8075346259
  N        16.6562231416        3.7756048104        5.9653352898
  N        16.6188854616       14.5977706801       16.7811420836
  N        16.6542370045       18.9687931336       16.7815470348
  N        16.6156543464        8.1470259796        5.9593274588
  N         5.7855247493       18.9800633775        5.9658994504
  N         5.8186497056        8.1548031455       16.8016410892
  N         5.7899790035        3.7829008648       16.7960443197
  N         5.8333159572       14.6087073073        5.9776058642
  N         5.7899833467       16.7960406972        3.7829004639
  N         5.8333057781        5.9776177566       14.6087052180
  N        16.6542367496       16.7815502293       18.9687920380
  N        16.6156510919        5.9593297506        8.1470267608
  N         5.7855187633        5.9658987088       18.9800653068
  N         5.8186582597       16.8016383421        8.1548034449
  N        16.6562254757        5.9653282516        3.7756065234
  N        16.6188848819       16.7811424803       14.5977703755
  N         5.7821988906        3.7820049688        5.9646732969
  N         5.8283332531       14.6087802107       16.7910173650
  N        16.6546226721       18.9679083910        5.9708731657
  N        16.6153054124        8.1477922133       16.7785400817
  N         5.7939098690       18.9796721489       16.7944269791
  N         5.8260180823        8.1531994167        5.9656352059
  N        16.6544314858        3.7767057744       16.7850434137
  N        16.6192983343       14.5973396866        5.9581160402
  N         3.6292302613       16.7852164558       16.7852191201
  N        14.4496515127       16.8067590646        5.9359427869
  N        18.8182359741       16.7701154519        5.9766525871
  N         8.0022796249       16.8555390591       16.8555407924
  N        18.8182333819        5.9766539170       16.7701185680
  N         7.9970531510        5.8886815996        5.8886856190
  N         3.6242269450        5.9829411500        5.9829418744
  N        14.4496505539        5.9359448521       16.8067626948
  N        16.6546247368        5.9708734456       18.9679108018
  N        16.6153101430       16.7785400657        8.1477917123
  N        16.6544324221       16.7850414757        3.7767042962
  N        16.6192973628        5.9581183519       14.5973407477
  N         5.7822003105        5.9646685768        3.7820077836
  N         5.8283350514       16.7910166381       14.6087805062
  N         5.7939114616       16.7944253380       18.9796730425
  N         5.8260155489        5.9656435214        8.1531964192
  C        11.2139584046       15.7802809389       15.7802806306
  H        11.1938744503       15.0051554560       15.0051559567
  C        11.2379637154        4.8469952282        4.8469995746
  H        11.2528884607        4.0719172787        4.0719202127
  C         0.4049833710       15.7183243199        4.9191889849
  H         0.4067123706       14.9428965347        4.1435130461
  C         0.4049779728        4.9191915010       15.7183301701
  H         0.4067099655        4.1435123461       14.9428988647
  C        11.2109439285        6.9635940916       15.7804390637
  H        11.1909914402        7.7393251685       15.0060049401
  C        11.2401680148       17.9014304820        4.8561817598
  H        11.2560910539       18.6790500087        4.0835421439
  C         0.4001467755        7.0400161811        4.9229293159
  H         0.3993329470        7.8160495600        4.1477992989
  C         0.4047576162       17.8385842584       15.7212683730
  H         0.4041393072       18.6136825302       14.9452362259
  C        11.2109480100       15.7804313067        6.9635956543
  H        11.1909886487       15.0059993896        7.7393239722
  C        11.2401675376        4.8561825830       17.9014324207
  H        11.2560860113        4.0835413789       18.6790522589
  C         0.4047568385       15.7212673080       17.8385865224
  H         0.4041363392       14.9452366541       18.6136838247
  C         0.4001393101        4.9229251765        7.0400161550
  H         0.3993480769        4.1477967129        7.8160454003
  C        11.2114374683        6.9609522721        6.9609539251
  H        11.1923045748        7.7360440813        7.7360439734
  C        11.2437116409       17.8947979326       17.8947977329
  H        11.2594481025       18.6699545810       18.6699534673
  C         0.3994630964        7.0383489278       17.8335630762
  H         0.3963048052        7.8148880241       18.6082103136
  C         0.3994638448       17.8335598000        7.0383494408
  H         0.3963085704       18.6082058746        7.8148868839
  C        15.5445517633       11.3740854568       15.7298405391
  H        14.7623593604       11.3760366598       14.9610765794
  C        15.6087619492        0.5512091346        4.9037282542
  H        14.8411537128        0.5501916818        4.1200554511
  C         4.7636559941       11.3841052728        4.9328600845
  H         3.9808516594       11.3871376485        4.1641082478
  C         4.7478470218        0.5605977642       15.7135971080
  H         3.9819188543        0.5596410657       14.9288269498
  C        15.5462186327       11.3732876687        7.0102542860
  H        14.7640210184       11.3750921292        7.7791112419
  C        15.6078883651        0.5522830209       17.8485007519
  H        14.8396102240        0.5512624152       18.6314118036
  C         4.7577436770       11.3851256941       17.8370841888
  H         3.9756466971       11.3883433284       18.6064075808
  C         4.7401309149        0.5604126026        7.0486641303
  H         3.9747593316        0.5594441759        7.8341077866
  C         6.8982647518       11.3782379733       15.7469932879
  H         7.6918839634       11.3732798249       14.9911633318
  C         6.8271706923        0.5612227920        4.8993398635
  H         7.5896281214        0.5618497920        4.1103751899
  C        17.6836570707       11.3714293510        4.9149170972
  H        18.4665714577       11.3697811873        4.1467469324
  C        17.7037789914        0.5535083595       15.7100533358
  H        18.4718094178        0.5546174885       14.9272116023
  C         6.9026291510       11.3774311033        7.0229189173
  H         7.6923648457       11.3725929641        7.7823814673
  C         6.8372111544        0.5615994643       17.8603370366
  H         7.6009345479        0.5624302128       18.6481191008
  C        17.6821149486       11.3718132610       17.8253242959
  H        18.4650164822       11.3700082715       18.5935916006
  C        17.7028550340        0.5525822540        7.0439634248
  H        18.4703554402        0.5536299974        7.8272484322
  C        15.5445535943       15.7298394891       11.3740843119
  H        14.7623599413       14.9610769255       11.3760380854
  C        15.6087633869        4.9037245233        0.5512102400
  H        14.8411552831        4.1200496556        0.5501875016
  C         4.7478458235       15.7135966863        0.5605973084
  H         3.9819205509       14.9288290387        0.5596417727
  C         4.7636724677        4.9328469427       11.3841024383
  H         3.9808744002        4.1640910509       11.3871304503
  C         6.8982661211       15.7469859051       11.3782399244
  H         7.6918839328       14.9911584236       11.3732803972
  C         6.8271709166        4.8993403801        0.5612190180
  H         7.5896275883        4.1103757548        0.5618502126
  C        17.7037829527       15.7100562913        0.5535045712
  H        18.4718110808       14.9272167398        0.5546136647
  C        17.6836563347        4.9149217140       11.3714318942
  H        18.4665749352        4.1467494550       11.3697794675
  C        15.5462191695        7.0102576955       11.3732891359
  H        14.7640232860        7.7791144352       11.3750962966
  C        15.6078909176       17.8485047708        0.5522837554
  H        14.8396129702       18.6314163091        0.5512632785
  C         4.7401343092        7.0486604716        0.5604162048
  H         3.9747556282        7.8341080047        0.5594444043
  C         4.7577418207       17.8370770578       11.3851247832
  H         3.9756454903       18.6064010519       11.3883415882
  C         6.9026408812        7.0229041615       11.3774258858
  H         7.6923867813        7.7823664503       11.3725966771
  C         6.8372140006       17.8603389996        0.5615993965
  H         7.6009371575       18.6481196768        0.5624282111
  C        17.7028525001        7.0439631126        0.5525865019
  H        18.4703507048        7.8272486979        0.5536403555
  C        17.6821194064       17.8253215760       11.3718145234
  H        18.4650205634       18.5935890528       11.3700063134
 Xe         8.7622594778       11.3522635310       11.3522644122
