     409
 i =     150, E =    -5183.7511577651
  N         2.6865188308        5.2049269962       16.0226082350
  C         1.3681008551        5.4748702981       16.2904297914
  N        13.4963672935        5.2010648848        5.2010662045
  C        12.1790666006        5.4720621857        5.4720584970
  N        19.3728582712       17.5737967422       16.0172688506
  C        20.6908341121       17.3046800679       16.2885549627
  N         8.5474839963       17.5802093646        5.2073279673
  C         9.8652189817       17.3076227845        5.4747417866
  N        19.3610138691        5.2004251294        6.7566700651
  C        20.6786690511        5.4739209216        6.4899803184
  N         8.5474890471        5.2073279534       17.5802131864
  C         9.8652224853        5.4747453141       17.3076239089
  N         2.6835991066       17.5781429108        6.7618700800
  C         1.3662056650       17.3062467202        6.4911744745
  N        13.5109760921       17.5751351818       17.5751365822
  C        12.1926782282       17.3061446785       17.3061444768
  N        15.6479915951        3.0445324158        5.1999106275
  C        15.9177616634        1.7269412292        5.4711274548
  N        15.6611025558       13.8641837317       16.0169187982
  C        15.9295544817       12.5465772682       16.2874267112
  N        15.6635681440       19.7285113923       17.5724353298
  C        15.9301302501       21.0463515202       17.3003367957
  N        15.6522051762        8.9088156747        6.7563258511
  C        15.9229254176       10.2262514622        6.4867076609
  N         6.3926304309       19.7370670615        5.2088453082
  C         6.1208788735       21.0544816636        5.4780234888
  N         6.3932765499        8.9154025223       16.0221581217
  C         6.1241452372       10.2329761733       16.2920965756
  N         6.3958152422        3.0530039943       17.5834305119
  C         6.1284660735        1.7351088996       17.3121631199
  N         6.3929856292       13.8697043347        6.7627737071
  C         6.1218425560       12.5524798585        6.4929927092
  N         4.8430536098       16.0253360505        3.0519661215
  C         5.1141341054       16.2946441965        1.7344831227
  N         4.8396422354        5.2055143192       13.8713630834
  C         5.1070075300        5.4760423099       12.5534838946
  N        17.2161896064       16.0141675879       19.7293599005
  C        16.9444215728       16.2827606161       21.0469551140
  N        17.2069441198        5.1996663456        8.9081783719
  C        16.9383483433        5.4702057733       10.2257643632
  N         4.8366760499        6.7644474773       19.7358884503
  C         5.1048555544        6.4939964514       21.0537772144
  N         4.8390061293       17.5796565441        8.9161874518
  C         5.1092965925       17.3092759496       10.2335614269
  N        17.2040216219        6.7559702454        3.0454387493
  C        16.9336360491        6.4872883579        1.7277108390
  N        17.2163917990       17.5729625065       13.8635060512
  C        16.9452546601       17.3036653334       12.5461188804
  N         4.8311687758        3.0522185568        6.7625014370
  C         5.1020298051        1.7345558941        6.4930899176
  N         4.8447590169       13.8714966212       17.5810155291
  C         5.1120641546       12.5537514386       17.3099074402
  N        17.2093395574       19.7296754203        6.7559916926
  C        16.9364924887       21.0470501765        6.4874414253
  N        17.2119933317        8.9083438903       17.5747818414
  C        16.9430725092       10.2259662267       17.3045431899
  N         4.8466368531       19.7362761420       16.0242433384
  C         5.1159751373       21.0539987062       16.2940316841
  N         4.8331230645        8.9157932897        5.2060515366
  C         5.1039037631       10.2331845339        5.4761879916
  N        17.2119790406        3.0454402294       16.0135777029
  C        16.9421212254        1.7276225537       16.2825340876
  N        17.2121815188       13.8632008117        5.2014758184
  C        16.9409191226       12.5458933787        5.4709818406
  N         2.6907266900       16.0243420051       17.5807278012
  C         1.3727624624       16.2919085382       17.3079980495
  N        13.5041417323       16.0171264111        6.7558182731
  C        12.1863970910       16.2883130933        6.4870120220
  N        19.3688355666       16.0173783481        5.2009226940
  C        20.6863645624       16.2879191806        5.4727611823
  N         8.5513280129       16.0230985600       16.0230994181
  C         9.8694860799       16.2922525617       16.2922514179
  N        19.3665312122        6.7565487864       17.5746348824
  C        20.6847089854        6.4885153745       17.3043660170
  N         8.5427427763        6.7611047914        6.7611122550
  C         9.8599226265        6.4901022628        6.4901017456
  N         2.6774914937        6.7643910114        5.2085100513
  C         1.3597021658        6.4937434906        5.4777521763
  N        13.5041479146        6.7558176407       16.0171264605
  C        12.1864036619        6.4870120860       16.2883138290
  N        15.6549951836        5.1990970029       19.7278914032
  C        15.9211716460        5.4708437492       21.0459733921
  N        15.6573765781       16.0181481577        8.9090248603
  C        15.9276424698       16.2880663366       10.2264265186
  N        15.6579261497       17.5709953470        3.0444871929
  C        15.9273485617       17.2997021595        1.7269768980
  N        15.6568938881        6.7576529263       13.8642106955
  C        15.9252783977        6.4872872049       12.5465390602
  N         6.3865947055        5.2064994512        3.0527655938
  C         6.1178319405        5.4769709927        1.7350561863
  N         6.3974680458       16.0231196610       13.8705203223
  C         6.1264233742       16.2924691827       12.5531284761
  N         6.4003216803       17.5819003146       19.7369621377
  C         6.1306445875       17.3113340251       21.0545093857
  N         6.3884430139        6.7625678290        8.9149790212
  C         6.1193732191        6.4927419538       10.2324883445
  N        19.3665296571       17.5746322064        6.7565488791
  C        20.6847076025       17.3043660013        6.4885105647
  N         8.5537027786       17.5795589095       17.5795573817
  C         9.8711585837       17.3083478274       17.3083456478
  N         2.6774910417        5.2085043350        6.7643943123
  C         1.3597011823        5.4777462226        6.4937480433
  N        13.5041875841        5.1993017281       17.5728766015
  C        12.1863791734        5.4709453976       17.3043458422
  N         2.6907270031       17.5807317976       16.0243400631
  C         1.3727621756       17.3080021979       16.2919059832
  N        13.5041833944       17.5728763498        5.1993003845
  C        12.1863751795       17.3043448156        5.4709439423
  N        19.3688387541        5.2009236919       16.0173827700
  C        20.6863676968        5.4727662681       16.2879202811
  N         8.5404093768        5.2049913837        5.2049952069
  C         9.8583478733        5.4740769505        5.4740750153
  N         6.4003171476       19.7369614007       17.5819053462
  C         6.1306428074       21.0545098437       17.3113399766
  N         6.3884489460        8.9149803263        6.7625580457
  C         6.1193850773       10.2324905027        6.4927262630
  N         6.3866057307        3.0527577546        5.2065056863
  C         6.1178359610        1.7350500093        5.4769741496
  N         6.3974583680       13.8705284512       16.0231034922
  C         6.1264139199       12.5531363728       16.2924516948
  N        15.6579259214        3.0444901412       17.5709947647
  C        15.9273453425        1.7269798799       17.2997011282
  N        15.6568920991       13.8642068485        6.7576559976
  C        15.9252785891       12.5465349457        6.4872900958
  N        15.6549934612       19.7278926153        5.1990976456
  C        15.9211713974       21.0459745134        5.4708449589
  N        15.6573770108        8.9090216038       16.0181514286
  C        15.9276401124       10.2264230962       16.2880696754
  N        17.2093413915        6.7559896277       19.7296743190
  C        16.9364927688        6.4874397254       21.0470476863
  N        17.2119932396       17.5747807923        8.9083464837
  C        16.9430747751       17.3045410835       10.2259696247
  N         4.8311552455        6.7624894206        3.0522250616
  C         5.1020252807        6.4930837821        1.7345622356
  N         4.8447682557       17.5810297241       13.8714916685
  C         5.1120725883       17.3099244155       12.5537449402
  N        17.2119776689       16.0135738005        3.0454359988
  C        16.9421232367       16.2825331929        1.7276178500
  N        17.2121826988        5.2014763181       13.8632049922
  C        16.9409188652        5.4709804686       12.5458974977
  N         4.8466416146       16.0242358866       19.7362737086
  C         5.1159767991       16.2940246287       21.0539961109
  N         4.8331190436        5.2060580163        8.9157949973
  C         5.1038931992        5.4762025766       10.2331849252
  N        17.2161873211       19.7293649986       16.0141670298
  C        16.9444182459       21.0469600779       16.2827596495
  N        17.2069458426        8.9081733973        5.1996684469
  C        16.9383500315       10.2257598110        5.4702073634
  N         4.8430564331        3.0519697977       16.0253438706
  C         5.1141356461        1.7344860463       16.2946518787
  N         4.8396445785       13.8713627760        5.2055044236
  C         5.1070162730       12.5534843605        5.4760254158
  N        17.2040207699        3.0454408321        6.7559726326
  C        16.9336352433        1.7277136684        6.4872893519
  N        17.2163895186       13.8635024810       17.5729632425
  C        16.9452515669       12.5461149873       17.3036677232
  N         4.8366670358       19.7358839246        6.7644457487
  C         5.1048496360       21.0537718717        6.4939948556
  N         4.8390095436        8.9161933384       17.5796501688
  C         5.1092948532       10.2335679258       17.3092630803
  N        19.3610141699        6.7566684450        5.2004291383
  C        20.6786697710        6.4899784946        5.4739245916
  N         8.5476404421        6.7620954092       16.0224486795
  C         9.8652958099        6.4900862447       16.2908489080
  N         2.6836012167        6.7618727839       17.5781506028
  C         1.3662069431        6.4911821840       17.3062503670
  N        13.4986807237        6.7570041963        6.7570040288
  C        12.1806284940        6.4880653321        6.4880608560
  N         2.6865155240       16.0226006662        5.2049255329
  C         1.3680977099       16.2904262014        5.4748636768
  N        13.5082836996       16.0188324451       16.0188322177
  C        12.1909151468       16.2900712452       16.2900703499
  N        19.3728587499       16.0172695211       17.5737943857
  C        20.6908347285       16.2885562018       17.3046778582
  N         8.5476360102       16.0224481574        6.7620925394
  C         9.8652902908       16.2908493131        6.4900822750
  N         6.3958127936       17.5834191317        3.0530053881
  C         6.1284650997       17.3121541469        1.7351078762
  N         6.3929848238        6.7627819668       13.8697032308
  C         6.1218347220        6.4930096442       12.5524777493
  N         6.3926385158        5.2088388056       19.7370747759
  C         6.1208838365        5.4780223034       21.0544863439
  N         6.3932734116       16.0221673226        8.9153964477
  C         6.1241471267       16.2921113821       10.2329695553
  N        15.6635702973       17.5724351918       19.7285076437
  C        15.9301341458       17.3003373479       21.0463473960
  N        15.6522041686        6.7563251775        8.9088202314
  C        15.9229240720        6.4867067648       10.2262560194
  N        15.6479934109        5.1999072877        3.0445301839
  C        15.9177625691        5.4711254019        1.7269389938
  N        15.6611047034       16.0169181879       13.8641875887
  C        15.9295578395       16.2874246240       12.5465810338
 Zn        14.3698425995       14.7241853926       14.7241858515
 Cl        13.1348923438       13.4931018376       13.4931017812
 Zn        14.3541892506        3.9062098815        3.9062104212
 Cl        13.1188936136        2.6756279650        2.6756282746
 Zn         3.5530576786       14.7309871556        3.9095201180
 Cl         2.3194319415       13.4992554815        2.6774077968
 Zn         3.5530515815        3.9095160971       14.7309792898
 Cl         2.3194268307        2.6773932735       13.4992507036
 Zn         7.6847614601        8.0552543766       14.7278814980
 Cl         8.9175438905        9.2874161255       13.4958231947
 Zn         7.6848674643       18.8763349129        3.9161850737
 Cl         8.9194741064       20.1092560319        2.6863901539
 Zn        18.4985302462        8.0487326616        3.9050638288
 Cl        19.7301694503        9.2816865254        2.6729574363
 Zn        18.5075461336       18.8674003042       14.7229565694
 Cl        19.7403011594       20.0964779835       13.4875852790
 Zn         7.6847509204       14.7278947193        8.0552470173
 Cl         8.9175288817       13.4958348437        9.2874051021
 Zn         7.6848851467        3.9161553533       18.8763483916
 Cl         8.9195044806        2.6863767751       20.1092788407
 Zn        18.5075467303       14.7229555082       18.8673960277
 Cl        19.7403004868       13.4875858566       20.0964770146
 Zn        18.4985301365        3.9050623338        8.0487373819
 Cl        19.7301684013        2.6729535643        9.2816896894
 Zn        14.3595094281        8.0507575785        8.0507582337
 Cl        13.1279907250        9.2833729777        9.2833747611
 Zn        14.3771077129       18.8688565156       18.8688574258
 Cl        13.1429252290       20.1005169671       20.1005160750
 Zn         3.5454758678        8.0557833721       18.8723548977
 Cl         2.3124635967        9.2907766355       20.1014533415
 Zn         3.5454783935       18.8723477659        8.0557743915
 Cl         2.3124594767       20.1014393895        9.2907609577
 Zn        14.3655296920       14.7241412570        8.0510878317
 Cl        13.1320115715       13.4932825818        9.2837225949
 Zn        14.3672555124        3.9040414836       18.8659409818
 Cl        13.1319743973        2.6713772459       20.0952053609
 Zn         3.5565248672       14.7311443633       18.8748646846
 Cl         2.3228599005       13.4990910527       20.1066739808
 Zn         3.5385492108        3.9128921743        8.0555377045
 Cl         2.3071072174        2.6824805049        9.2905219293
 Zn         7.6816990943        8.0548118571        8.0548078410
 Cl         8.9153635812        9.2864244391        9.2864219697
 Zn         7.6906380187       18.8741338013       18.8741328677
 Cl         8.9272243517       20.1044973906       20.1044984032
 Zn        18.5023136430        8.0486727603       18.8700434447
 Cl        19.7340342167        9.2820973715       20.1018306423
 Zn        18.5023171364       18.8700494611        8.0486802538
 Cl        19.7340475538       20.1018356043        9.2821016219
 Zn        14.3655478970        8.0510810462       14.7241460297
 Cl        13.1320176407        9.2837077616       13.4932952752
 Zn        14.3672426775       18.8659520984        3.9040344516
 Cl        13.1319630070       20.0952151264        2.6713635528
 Zn         3.5385403437        8.0555374819        3.9128911704
 Cl         2.3071021711        9.2905273492        2.6824804163
 Zn         3.5565272350       18.8748689432       14.7311440604
 Cl         2.3228630800       20.1066764446       13.4990870877
 Zn         7.6875057113       14.7287878726       14.7287793351
 Cl         8.9202024112       13.4965756177       13.4965724210
 Zn         7.6782915607        3.9114370139        3.9114321988
 Cl         8.9105308274        2.6791782372        2.6791773378
 Zn        18.5046337210       14.7226375852        3.9076766761
 Cl        19.7369286919       13.4873408041        2.6782594088
 Zn        18.5046304281        3.9076874257       14.7226468794
 Cl        19.7369146771        2.6782637389       13.4873507427
 Zn         5.6196216836        5.9893092736       16.8069880189
 Zn        16.4428286834       16.7929573474       16.7929547068
 Zn        16.4327125918        5.9754714271        5.9754780887
 Zn         5.6196106206       16.8069656077        5.9893110868
 Zn         5.6137775650        5.9884386431        5.9884579105
 Zn        16.4388429159       16.7930054449        5.9764803980
 Zn         5.6238341508       16.8071752472       16.8071838258
 Zn        16.4388434496        5.9764822587       16.7930176797
  N         3.4314871706        5.9835661181       16.8015357446
  N        14.2441378817        5.9784953770        5.9784988315
  N        18.6266446791       16.7949399341       16.7949391522
  N         7.8012876008       16.8025772889        5.9859933478
  N        18.6146793295        5.9766859497        5.9766881236
  N         7.8012923248        5.9859941696       16.8025801478
  N         3.4314843547       16.8015253811        5.9835664754
  N        14.2560151162       16.7963921326       16.7963932967
  N        16.4264077695        3.7914426586        5.9772028934
  N        16.4395032367       14.6103329937       16.7945651309
  N        16.4412960822       18.9821385571       16.7943554328
  N        16.4291057682        8.1618422182        5.9777502597
  N         5.6157143990       18.9900071871        5.9871237768
  N         5.6160248974        8.1694688425       16.8011590773
  N         5.6184552668        3.7992982276       16.8049021117
  N         5.6173363786       14.6173937870        5.9838916159
  N         5.6184501010       16.8048932555        3.7992960659
  N         5.6173406793        5.9838949484       14.6173940698
  N        16.4412972409       16.7943553743       18.9821341594
  N        16.4291047003        5.9777485774        8.1618470826
  N         5.6157249658        5.9871229743       18.9900137239
  N         5.6160171804       16.8011610474        8.1694625231
  N        16.4264097672        5.9771996514        3.7914406255
  N        16.4395043338       16.7945649785       14.6103366478
  N         5.6084981904        3.7992158985        5.9842917523
  N         5.6221558277       14.6178558167       16.8026886311
  N        16.4340465948       18.9820270263        5.9765257143
  N        16.4344376212        8.1620522064       16.7964683860
  N         5.6235486125       18.9901335005       16.8033147074
  N         5.6104836347        8.1690401872        5.9842707118
  N        16.4352303396        3.7915234155       16.7929943782
  N        16.4353149056       14.6101987380        5.9798158593
  N         3.4370529679       16.8039545151       16.8039518605
  N        14.2506544884       16.7943229862        5.9768696451
  N        18.6214333774       16.7959611119        5.9777564999
  N         7.8063145424       16.8018909699       16.8018915550
  N        18.6214353649        5.9777538589       16.7959660823
  N         7.7952203458        5.9835738172        5.9835836950
  N         3.4241336616        5.9867161800        5.9867205822
  N        14.2506589810        5.9768689161       16.7943237726
  N        16.4340483809        5.9765233933       18.9820264409
  N        16.4344357969       16.7964665514        8.1620552937
  N        16.4352285464       16.7929907602        3.7915200124
  N        16.4353175337        5.9798149674       14.6102033547
  N         5.6084825462        5.9842794968        3.7992235419
  N         5.6221646565       16.8027021291       14.6178495450
  N         5.6235545723       16.8033087271       18.9901326212
  N         5.6104825793        5.9842738459        8.1690409645
  C        11.0292117670       15.7409357482       15.7409346783
  H        11.0276294595       14.9653765699       14.9653763380
  C        11.0178067804        4.9226748105        4.9226717237
  H        11.0163651627        4.1471192103        4.1471207940
  C         0.2083088190       15.7386391826        4.9240270777
  H         0.2100372082       14.9628205651        4.1487777796
  C         0.2083108869        4.9240329896       15.7386418362
  H         0.2100361200        4.1487801732       14.9628269979
  C        11.0259799628        7.0385813039       15.7389982583
  H        11.0261024914        7.8139878529       14.9632912310
  C        11.0256971929       17.8563557344        4.9226356921
  H        11.0253884133       18.6322042230        4.1473915639
  C         0.1992356861        7.0426838042        4.9260092394
  H         0.1992939502        7.8184504397        4.1506779383
  C         0.2118215445       17.8561591776       15.7398596366
  H         0.2119076737       18.6315373286       14.9641573094
  C        11.0259766398       15.7389983700        7.0385802352
  H        11.0260834883       14.9632928501        7.8139880506
  C        11.0257069579        4.9226390191       17.8563571305
  H        11.0253996522        4.1473957525       18.6322062427
  C         0.2118203965       15.7398608766       17.8561554179
  H         0.2119092424       14.9641581921       18.6315330457
  C         0.1992359814        4.9260036338        7.0426858678
  H         0.1992887206        4.1506706928        7.8184509675
  C        11.0212395879        7.0395004140        7.0394974524
  H        11.0225852161        7.8150574195        7.8150585371
  C        11.0329396220       17.8574322456       17.8574309401
  H        11.0344306978       18.6329669546       18.6329663625
  C         0.2044453413        7.0403436370       17.8551936272
  H         0.2028337088        7.8160838169       18.6305534939
  C         0.2044443942       17.8551922464        7.0403366804
  H         0.2028458704       18.6305493681        7.8160792276
  C        15.3781148765       11.3867875997       15.7370118622
  H        14.6027769118       11.3872756810       14.9611868891
  C        15.3687366040        0.5657441356        4.9209154725
  H        14.5932989579        0.5646235669        4.1452350980
  C         4.5551916741       11.3940327435        4.9252454166
  H         3.7801760103       11.3951159947        4.1491402917
  C         4.5655438530        0.5739857248       15.7428408531
  H         3.7909704033        0.5735778515       14.9662607354
  C        15.3736890376       11.3867887382        7.0377452206
  H        14.5983006977       11.3874665067        7.8135135010
  C        15.3784785542        0.5661770588       17.8507085422
  H        14.6036315242        0.5654281637       18.6270087613
  C         4.5606907145       11.3941689589       17.8607357406
  H         3.7861416874       11.3949379467       18.6373071809
  C         4.5531320360        0.5737580920        7.0441143601
  H         3.7780123001        0.5730473108        7.8201037404
  C         6.6750671952       11.3926464889       15.7408935017
  H         7.4499028980       11.3919484817       14.9645786009
  C         6.6698331008        0.5752301474        4.9270975773
  H         7.4456684093        0.5759524196        4.1518063091
  C        17.4899350258       11.3854156502        4.9198423745
  H        18.2652036506       11.3848690225        4.1440155619
  C        17.4925119156        0.5677562720       15.7309960867
  H        18.2669827697        0.5686226474       14.9543698765
  C         6.6707155502       11.3918953378        7.0439427308
  H         7.4458317120       11.3909353187        7.8199599739
  C         6.6796018655        0.5751480128       17.8626550600
  H         7.4544069516        0.5756597095       18.6389427446
  C        17.4945520949       11.3857379751       17.8548195130
  H        18.2700961105       11.3853382947       18.6303837851
  C        17.4847728164        0.5680546045        7.0384418746
  H        18.2600429042        0.5692361682        7.8142841401
  C        15.3781185392       15.7370090812       11.3867929997
  H        14.6027803503       14.9611843537       11.3872848037
  C        15.3687373999        4.9209140305        0.5657388508
  H        14.5933003669        4.1452329843        0.5646149535
  C         4.5655432377       15.7428328354        0.5739792854
  H         3.7909698757       14.9662522132        0.5735714446
  C         4.5551824977        4.9252615828       11.3940319929
  H         3.7801732222        4.1491499910       11.3951139993
  C         6.6750738143       15.7409100076       11.3926356630
  H         7.4499071970       14.9645934538       11.3919248759
  C         6.6698338382        4.9270948910        0.5752439090
  H         7.4456666453        4.1518013200        0.5759706605
  C        17.4925147004       15.7309962497        0.5677518921
  H        18.2669852217       14.9543695845        0.5686118609
  C        17.4899345807        4.9198405862       11.3854203163
  H        18.2652031551        4.1440143937       11.3848771074
  C        15.3736878523        7.0377439593       11.3867939749
  H        14.5983002701        7.8135127867       11.3874766804
  C        15.3784829338       17.8507102458        0.5661712454
  H        14.6036362682       18.6270105342        0.5654188690
  C         4.5531327904        7.0441116705        0.5737577921
  H         3.7780105870        7.8200981969        0.5730543649
  C         4.5606945763       17.8607509538       11.3941642313
  H         3.7861416762       18.6373184876       11.3949289674
  C         6.6707052148        7.0439597426       11.3918918597
  H         7.4458270550        7.8199719251       11.3909165809
  C         6.6796017390       17.8626465881        0.5751526709
  H         7.4544071195       18.6389334290        0.5756718697
  C        17.4847731796        7.0384409495        0.5680543701
  H        18.2600433067        7.8142832380        0.5692288669
  C        17.4945546877       17.8548169144       11.3857404377
  H        18.2700986683       18.6303817517       11.3853462728
 Xe        20.8871626563       10.6902111990       10.6902113982
