     409
 i =     150, E =    -5183.7557685539
  N         2.8072285292        5.1964890484       15.9972969939
  C         1.4893692660        5.4676415799       16.2663949110
  N        13.6214377343        5.1462694025        5.1462696957
  C        12.3033280098        5.4166835339        5.4166833956
  N        19.4973501447       17.5542898267       15.9989986390
  C        20.8153909173       17.2864290442       16.2703785233
  N         8.6635740767       17.5882236553        5.1667496577
  C         9.9840778745       17.3253418476        5.4291453677
  N        19.4833785382        5.2029489140        6.7594462938
  C        20.8014826864        5.4736759373        6.4898272291
  N         8.6635758838        5.1667479285       17.5882266332
  C         9.9840788858        5.4291448956       17.3253440400
  N         2.8077127754       17.5489606449        6.7567519558
  C         1.4896998226       17.2800869943        6.4860384370
  N        13.6279397307       17.6022426504       17.6022431628
  C        12.3098713811       17.3317648381       17.3317651596
  N        15.8032952009        3.0301463698        5.1807227368
  C        16.0730675321        1.7142855683        5.4557465884
  N        15.7552377545       13.8567129695       16.0048722945
  C        16.0289064387       12.5385284123       16.2695054374
  N        15.8094385458       19.7187880604       17.5701817088
  C        16.0775257267       21.0349531270       17.2954235963
  N        15.7457892109        8.8975412386        6.7480946770
  C        16.0192436244       10.2164307008        6.4856465936
  N         6.4956017313       19.7201843878        5.1908297770
  C         6.2259386640       21.0363477172        5.4642407521
  N         6.5460795741        8.8952301831       16.0075882941
  C         6.2782721303       10.2143389601       16.2768834596
  N         6.4995869965        3.0331915749       17.5747583176
  C         6.2330249186        1.7163878741       17.2999676521
  N         6.5398151121       13.8544471549        6.7351310822
  C         6.2683896119       12.5357922117        6.4692694027
  N         4.9577435469       16.0054823326        3.0345889595
  C         5.2259326907       16.2752293093        1.7165634239
  N         4.9724894845        5.1907298585       13.8520869195
  C         5.2449150765        5.4607173707       12.5351439027
  N        17.3478282785       15.9975159944       19.7156731599
  C        17.0819998408       16.2680577233       21.0343807909
  N        17.3142025464        5.2050365889        8.9012565874
  C        17.0439843540        5.4784438888       10.2181808532
  N         4.9522514035        6.7582194890       19.7156584245
  C         5.2179859566        6.4881097980       21.0346353045
  N         4.9779489011       17.5507774851        8.8990876148
  C         5.2543280909       17.2849171857       10.2157443967
  N        17.3404206620        6.7551523062        3.0350582786
  C        17.0766710964        6.4839680058        1.7161231433
  N        17.3286616083       17.5431885530       13.8552901341
  C        17.0567377367       17.2736792837       12.5381333136
  N         4.9477963463        3.0345635039        6.7534675264
  C         5.2162684536        1.7160854150        6.4852526484
  N         4.9806785672       13.8525243993       17.5561645310
  C         5.2550990564       12.5356348371       17.2880045936
  N        17.3447443566       19.7159313865        6.7539725078
  C        17.0789656906       21.0347561130        6.4834584453
  N        17.3258845122        8.9011296121       17.5484652967
  C        17.0554243709       10.2180409567       17.2763809033
  N         4.9624475211       19.7171857008       16.0015484485
  C         5.2278999231       21.0357644902       16.2727840937
  N         4.9699466668        8.8984661565        5.1943749997
  C         5.2441831712       10.2151147676        5.4629056679
  N        17.3423892760        3.0344206395       15.9978151836
  C        17.0790597792        1.7154524486       16.2684094747
  N        17.3161586191       13.8559366575        5.2089389567
  C        17.0449636664       12.5388517025        5.4806171629
  N         2.8143015729       15.9993774859       17.5548421060
  C         1.4964883556       16.2705625967       17.2865292478
  N        13.6271638594       16.0510011612        6.7033013847
  C        12.3097132048       16.3186706401        6.4347965335
  N        19.4894402135       15.9968213078        5.1985226053
  C        20.8076668790       16.2662188839        5.4683137054
  N         8.6810733027       16.0298695113       16.0298694290
  C         9.9953171246       16.3069597258       16.3069600681
  N        19.4901093598        6.7564459753       17.5507128465
  C        20.8080335676        6.4858606613       17.2808875629
  N         8.6740076926        6.7175935104        6.7175939603
  C         9.9885203468        6.4409686392        6.4409685307
  N         2.8017431750        6.7573239653        5.2007958157
  C         1.4837162416        6.4888661146        5.4727486011
  N        13.6271627246        6.7033058184       16.0509996001
  C        12.3097133161        6.4347994457       16.3186705177
  N        15.8073310665        5.1795697370       19.7198336933
  C        16.0752355990        5.4552731482       21.0358595496
  N        15.7535991855       16.0104276673        8.8976213890
  C        16.0278356265       16.2721860251       10.2163191149
  N        15.8044118936       17.5708278281        3.0291841121
  C        16.0747664484       17.2959226804        1.7133459987
  N        15.7471737824        6.7525910276       13.8581489546
  C        16.0201238484        6.4879587449       12.5396262322
  N         6.4913141485        5.1857468651        3.0316847749
  C         6.2241972149        5.4613214223        1.7152515572
  N         6.5480934477       16.0117790692       13.8552150005
  C         6.2786827010       16.2795610776       12.5365570824
  N         6.5045787559       17.5700314596       19.7205882931
  C         6.2351847362       17.2972998711       21.0370956457
  N         6.5377907905        6.7378739305        8.8944911196
  C         6.2679265825        6.4711531281       10.2136338192
  N        19.4901088149       17.5507111232        6.7564416376
  C        20.8080332584       17.2808865506        6.4858575167
  N         8.6673190093       17.5858925034       17.5858893001
  C         9.9877741513       17.3227545684       17.3227528729
  N         2.8017418602        5.2007915446        6.7573272471
  C         1.4837153444        5.4727456805        6.4888681969
  N        13.6239170928        5.1490359877       17.6061435984
  C        12.3059833271        5.4196970596       17.3352000207
  N         2.8142986867       17.5548482267       15.9993707928
  C         1.4964869176       17.2865326033       16.2705584739
  N        13.6239152908       17.6061444417        5.1490306422
  C        12.3059825564       17.3351998636        5.4196937463
  N        19.4894384508        5.1985270689       15.9968228453
  C        20.8076654530        5.4683167972       16.2662198107
  N         8.6607764130        5.1626271679        5.1626287717
  C         9.9812575701        5.4253527419        5.4253532715
  N         6.5045766676       19.7205895064       17.5700285845
  C         6.2351828672       21.0370973918       17.2972990998
  N         6.5377915392        8.8944895606        6.7378768889
  C         6.2679273407       10.2136320542        6.4711550818
  N         6.4913127484        3.0316838954        5.1857452917
  C         6.2241953080        1.7152507439        5.4613196299
  N         6.5480935670       13.8552143298       16.0117771265
  C         6.2786833503       12.5365565620       16.2795605992
  N        15.8044097458        3.0291846147       17.5708235476
  C        16.0747637171        1.7133461122       17.2959167659
  N        15.7471753326       13.8581513644        6.7525859393
  C        16.0201267979       12.5396283193        6.4879562375
  N        15.8073299729       19.7198332408        5.1795701132
  C        16.0752349165       21.0358586560        5.4552744138
  N        15.7535981868        8.8976225969       16.0104271107
  C        16.0278343060       10.2163198462       16.2721867369
  N        17.3447436433        6.7539741947       19.7159332309
  C        17.0789651103        6.4834584524       21.0347574610
  N        17.3258853962       17.5484655195        8.9011293255
  C        17.0554258582       17.2763799267       10.2180405001
  N         4.9477954513        6.7534666182        3.0345642911
  C         5.2162685968        6.4852527152        1.7160862795
  N         4.9806793488       17.5561679541       13.8525238255
  C         5.2550991716       17.2880057501       12.5356348429
  N        17.3423914417       15.9978197423        3.0344196773
  C        17.0790623015       16.2684154061        1.7154516403
  N        17.3161577635        5.2089449238       13.8559360597
  C        17.0449611200        5.4806199289       12.5388505520
  N         4.9624490198       16.0015519487       19.7171817291
  C         5.2279012038       16.2727854853       21.0357613341
  N         4.9699451246        5.1943727307        8.8984688202
  C         5.2441819667        5.4629040363       10.2151173221
  N        17.3478293593       19.7156724229       15.9975154407
  C        17.0819990074       21.0343804722       16.2680542786
  N        17.3142018239        8.9012573323        5.2050364327
  C        17.0439863241       10.2181817534        5.4784452235
  N         4.9577456165        3.0345920218       16.0054856465
  C         5.2259335214        1.7165656522       16.2752316238
  N         4.9724882876       13.8520845536        5.1907302525
  C         5.2449144854       12.5351417071        5.4607181206
  N        17.3404210271        3.0350570422        6.7551540717
  C        17.0766716000        1.7161215897        6.4839696551
  N        17.3286625655       13.8552893935       17.5431922960
  C        17.0567366100       12.5381332969       17.2736827240
  N         4.9522522408       19.7156579425        6.7582220196
  C         5.2179859104       21.0346340714        6.4881106043
  N         4.9779486398        8.8990872528       17.5507786994
  C         5.2543281016       10.2157441829       17.2849185099
  N        19.4833801063        6.7594491876        5.2029477750
  C        20.8014830366        6.4898284751        5.4736758774
  N         8.6776196281        6.7181887996       16.0287704823
  C         9.9919015990        6.4426918598       16.3074890464
  N         2.8077135354        6.7567496232       17.5489591331
  C         1.4896998696        6.4860373527       17.2800865573
  N        13.6240307764        6.7013268947        6.7013269417
  C        12.3065893657        6.4325766899        6.4325763953
  N         2.8072303922       15.9972978283        5.1964918651
  C         1.4893704504       16.2663950106        5.4676429920
  N        13.6303941155       16.0474848814       16.0474875181
  C        12.3131525851       16.3159583163       16.3159601903
  N        19.4973527031       15.9989947133       17.5542955158
  C        20.8153925135       16.2703763462       17.2864323854
  N         8.6776203694       16.0287674976        6.7181904846
  C         9.9919014021       16.3074870428        6.4426922860
  N         6.4995861735       17.5747538406        3.0331912679
  C         6.2330250038       17.2999644767        1.7163862711
  N         6.5398165414        6.7351303177       13.8544485071
  C         6.2683903034        6.4692684587       12.5357938968
  N         6.4956036564        5.1908299990       19.7201858696
  C         6.2259406853        5.4642418691       21.0363483933
  N         6.5460792432       16.0075863948        8.8952310354
  C         6.2782715705       16.2768815808       10.2143397893
  N        15.8094388519       17.5701837849       19.7187880161
  C        16.0775273866       17.2954279201       21.0349531992
  N        15.7457903080        6.7480951778        8.8975390155
  C        16.0192418927        6.4856452849       10.2164283983
  N        15.8032957641        5.1807198266        3.0301475410
  C        16.0730678388        5.4557440357        1.7142863173
  N        15.7552353389       16.0048699029       13.8567121038
  C        16.0289066681       16.2695028094       12.5385279019
 Zn        14.4507590406       14.7447996764       14.7448046328
 Cl        13.0669585927       13.5943601454       13.5943703520
 Zn        14.5120666523        3.8678060800        3.8678088941
 Cl        13.3337955869        2.6098435189        2.6098454746
 Zn         3.6744455694       14.7108148999        3.9006394679
 Cl         2.4412589220       13.4735309111        2.6732714716
 Zn         3.6744466333        3.9006386521       14.7108157037
 Cl         2.4412725195        2.6732608651       13.4735292463
 Zn         7.8390009561        8.0145880921       14.7236280117
 Cl         9.0761245859        9.2430970653       13.4925124980
 Zn         7.7863894967       18.8774317765        3.8888296011
 Cl         9.0020900457       20.1218257446        2.6513138449
 Zn        18.6157409371        8.0526595715        3.9100663793
 Cl        19.8456907777        9.3010360709        2.6914511973
 Zn        18.6273548457       18.8374182184       14.7072285016
 Cl        19.8546957920       20.0594991233       13.4579274280
 Zn         7.8390004180       14.7236260220        8.0145892374
 Cl         9.0761215743       13.4925067719        9.2430971025
 Zn         7.7863915138        3.8888283238       18.8774350126
 Cl         9.0020923201        2.6513157260       20.1218322377
 Zn        18.6273572291       14.7072264506       18.8374243760
 Cl        19.8546923077       13.4579261938       20.0595123747
 Zn        18.6157416443        3.9100673869        8.0526589534
 Cl        19.8457002099        2.6914548570        9.3010293154
 Zn        14.4439520903        8.0062960331        8.0062952267
 Cl        13.0453301253        9.1483390190        9.1483422753
 Zn        14.5183615739       18.8806679314       18.8806672084
 Cl        13.3368398164       20.1372128144       20.1372110764
 Zn         3.6737703981        8.0527615616       18.8359754491
 Cl         2.4387004070        9.2943240850       20.0575659536
 Zn         3.6737701133       18.8359764014        8.0527641969
 Cl         2.4387057311       20.0575684661        9.2943310334
 Zn        14.4471481338       14.7544655769        8.0117024143
 Cl        13.0574088235       13.6364499272        9.1880168854
 Zn        14.5141822150        3.8688322865       18.8823497451
 Cl        13.3337359246        2.6111811521       20.1386848594
 Zn         3.6796322348       14.7089135873       18.8431591537
 Cl         2.4467410749       13.4709154074       20.0706274312
 Zn         3.6684387766        3.9054193027        8.0497295795
 Cl         2.4324181702        2.6849660309        9.2907250880
 Zn         7.8353581115        8.0160962053        8.0160985981
 Cl         9.0721319790        9.2464993312        9.2465046105
 Zn         7.7918797379       18.8730595663       18.8730567857
 Cl         9.0126218856       20.1114063231       20.1113992725
 Zn        18.6233043601        8.0506544221       18.8390162615
 Cl        19.8546636912        9.2908802528       20.0655265356
 Zn        18.6233041526       18.8390136609        8.0506510641
 Cl        19.8546657826       20.0655230474        9.2908751873
 Zn        14.4471461279        8.0117062399       14.7544622381
 Cl        13.0574071399        9.1880254776       13.6364505715
 Zn        14.5141833225       18.8823515290        3.8688287394
 Cl        13.3337414937       20.1386916823        2.6111786024
 Zn         3.6684392510        8.0497265190        3.9054234389
 Cl         2.4324139158        9.2907238493        2.6849770076
 Zn         3.6796307270       18.8431668951       14.7089084502
 Cl         2.4467460049       20.0706326646       13.4709011101
 Zn         7.8424073427       14.7267240895       14.7267236058
 Cl         9.0800450548       13.4975432459       13.4975438772
 Zn         7.7804021879        3.8826880767        3.8826880434
 Cl         8.9891406690        2.6381700327        2.6381669049
 Zn        18.6178878078       14.7061025405        3.9107314077
 Cl        19.8445682136       13.4496384681        2.6962828531
 Zn        18.6178863539        3.9107367799       14.7061024788
 Cl        19.8445698641        2.6962911837       13.4496379629
 Zn         5.7388851756        5.9619044158       16.7814614638
 Zn        16.5580098748       16.7876871568       16.7876896522
 Zn        16.5522515103        5.9570057717        5.9570057191
 Zn         5.7388845467       16.7814598486        5.9619058807
 Zn         5.7337530870        5.9611931744        5.9611953215
 Zn        16.5549828089       16.7917296438        5.9576205536
 Zn         5.7450594264       16.7820699893       16.7820655610
 Zn        16.5549825005        5.9576237568       16.7917324547
  N         3.5538022325        5.9765112284       16.7730332026
  N        14.3691922980        5.9243495268        5.9243499934
  N        18.7505993367       16.7754410380       16.7754467584
  N         7.9239152861       16.8043985003        5.9458155215
  N        18.7370708795        5.9808276731        5.9808255946
  N         7.9239158201        5.9458135165       16.8044017942
  N         3.5538027379       16.7730345380        5.9765141242
  N        14.3758084026       16.8243402432       16.8243420222
  N        16.5701827834        3.7789019144        5.9665009644
  N        16.5417882940       14.6025387989       16.7761191409
  N        16.5778531702       18.9708092783       16.7853262944
  N        16.5294894068        8.1524216587        5.9728823930
  N         5.7253140252       18.9711582155        5.9732573803
  N         5.7591045779        8.1506097617       16.7784089636
  N         5.7283744175        3.7803913614       16.7913634325
  N         5.7557906342       14.5995875951        5.9618665743
  N         5.7283728718       16.7913594728        3.7803898022
  N         5.7557921921        5.9618659229       14.5995894879
  N        16.5778519274       16.7853261085       18.9708097136
  N        16.5294918512        5.9728835911        8.1524201731
  N         5.7253139264        5.9732557813       18.9711592442
  N         5.7591047829       16.7784074701        8.1506104146
  N        16.5701827408        5.9664983182        3.7789030233
  N        16.5417857047       16.7761163587       14.6025387711
  N         5.7193342083        3.7796095423        5.9675145646
  N         5.7627927119       14.6001878182       16.7838842791
  N        16.5752324291       18.9716863625        5.9649933272
  N        16.5389677613        8.1523657628       16.7828883824
  N         5.7348038197       18.9721041995       16.7864114475
  N         5.7523445665        8.1499251544        5.9654352345
  N        16.5715313725        3.7782088795       16.7856739632
  N        16.5315588164       14.6036199612        5.9779633954
  N         3.5608029519       16.7761733225       16.7761660798
  N        14.3721497325       16.8283608395        5.9266948919
  N        18.7432641847       16.7738374862        5.9777746422
  N         7.9277857466       16.8042390692       16.8042369363
  N        18.7432635842        5.9777796815       16.7738395928
  N         7.9204768797        5.9436933896        5.9436948405
  N         3.5479181835        5.9780520389        5.9780564757
  N        14.3721500350        5.9267002018       16.8283595506
  N        16.5752324356        5.9649945531       18.9716876204
  N        16.5389686134       16.7828889519        8.1523648820
  N        16.5715333338       16.7856772484        3.7782081109
  N        16.5315581758        5.9779698527       14.6036186969
  N         5.7193340609        5.9675144311        3.7796104536
  N         5.7627934807       16.7838879150       14.6001876177
  N         5.7348055392       16.7864157336       18.9721015361
  N         5.7523433965        5.9654321081        8.1499272827
  C        11.1579660081       15.7611364820       15.7611391002
  H        11.1684496356       14.9855839040       14.9855890097
  C        11.1382965014        4.8703458999        4.8703458020
  H        11.1303040193        4.0949336067        4.0949331604
  C         0.3284212696       15.7168982864        4.9170204211
  H         0.3287956253       14.9419567398        4.1409110977
  C         0.3284182819        4.9170208171       15.7168990806
  H         0.3287890834        4.1409108214       14.9419584145
  C        11.1547416408        6.9885057922       15.7621406058
  H        11.1655352107        7.7640525719       14.9865663686
  C        11.1406299319       17.8819209021        4.8747132748
  H        11.1321538204       18.6587218607        4.1007055663
  C         0.3226519952        7.0398312428        4.9236587268
  H         0.3230969793        7.8159729579        4.1487217862
  C         0.3359710441       17.8371839207       15.7204031441
  H         0.3365684883       18.6121632650       14.9442739875
  C        11.1547437582       15.7621397440        6.9885046430
  H        11.1655383211       14.9865655817        7.7640515620
  C        11.1406327327        4.8747148263       17.8819223138
  H        11.1321582839        4.1007074663       18.6587238749
  C         0.3359761652       15.7204048499       17.8371847058
  H         0.3365799740       14.9442772229       18.6121658729
  C         0.3226493352        4.9236568868        7.0398308525
  H         0.3230917639        4.1487187718        7.8159719056
  C        11.1509268965        6.9870155760        6.9870147398
  H        11.1608408457        7.7625697741        7.7625681907
  C        11.1447251116       17.8778971442       17.8778958239
  H        11.1367265119       18.6533178399       18.6533154551
  C         0.3290575405        7.0371816778       17.8296905307
  H         0.3297237435        7.8143759736       18.6036227866
  C         0.3290558371       17.8296901397        7.0371808911
  H         0.3297191521       18.6036221489        7.8143751101
  C        15.4716712119       11.3770342334       15.7275004880
  H        14.6824029764       11.3757795492       14.9666769067
  C        15.5305523818        0.5546908261        4.8978464413
  H        14.7657708451        0.5541170358        4.1113338823
  C         4.6900756773       11.3748430334        4.9156046088
  H         3.9087976264       11.3741715015        4.1457567108
  C         4.6812942743        0.5562245274       15.7185489087
  H         3.9122866499        0.5566026451       14.9365956921
  C        15.4650226716       11.3776689215        7.0317777732
  H        14.6786537854       11.3764417069        7.7954591051
  C        15.5321350240        0.5534093736       17.8529422138
  H        14.7667534293        0.5522354361       18.6388102798
  C         4.7007573729       11.3752174627       17.8333351226
  H         3.9194296514       11.3742319470       18.6032091870
  C         4.6713692823        0.5555652908        7.0419307977
  H         3.9021307382        0.5561668480        7.8236136189
  C         6.8335151531       11.3758880901       15.7327058603
  H         7.6146371073       11.3769697494       14.9628440461
  C         6.7716298942        0.5555572543        4.9081453850
  H         7.5410300286        0.5551235221        4.1263292413
  C        17.5999479553       11.3787625839        4.9347255440
  H        18.3813429682       11.3794759444        4.1647401829
  C        17.6250122841        0.5556498379       15.7113535046
  H        18.3919135889        0.5568011473       14.9273601469
  C         6.8224497124       11.3749668320        7.0166093387
  H         7.6033385778       11.3757355598        7.7867859210
  C         6.7803108650        0.5566505438       17.8536785468
  H         7.5495847799        0.5564744995       18.6355840475
  C        17.6131597583       11.3783735099       17.8187984085
  H        18.3962084468       11.3791489004       18.5871265534
  C        17.6218882627        0.5558288215        7.0407463665
  H        18.3886459865        0.5563742106        7.8248447606
  C        15.4716721244       15.7274993207       11.3770327837
  H        14.6824025692       14.9666772427       11.3757781808
  C        15.5305536365        4.8978439637        0.5546916316
  H        14.7657724010        4.1113307751        0.5541176502
  C         4.6812940453       15.7185489465        0.5562198215
  H         3.9122852924       14.9365971802        0.5565952383
  C         4.6900751652        4.9156036484       11.3748460143
  H         3.9087971921        4.1457554933       11.3741759150
  C         6.8335140162       15.7327044477       11.3758893308
  H         7.6146355163       14.9628421060       11.3769726183
  C         6.7716333978        4.9081481385        0.5555586041
  H         7.5410350286        4.1263336812        0.5551245301
  C        17.6250144376       15.7113587184        0.5556501629
  H        18.3919159044       14.9273653742        0.5568028610
  C        17.5999447960        4.9347255927       11.3787629603
  H        18.3813407711        4.1647410038       11.3794794824
  C        15.4650195445        7.0317777640       11.3776654906
  H        14.6786524509        7.7954607523       11.3764341335
  C        15.5321378803       17.8529487177        0.5534089480
  H        14.7667570879       18.6388174239        0.5522345379
  C         4.6713686497        7.0419295116        0.5555656218
  H         3.9021283958        7.8236109066        0.5561671013
  C         4.7007573799       17.8333351911       11.3752169455
  H         3.9194301107       18.6032095079       11.3742304680
  C         6.8224496583        7.0166080258       11.3749678062
  H         7.6033382400        7.7867848323       11.3757353739
  C         6.7803122274       17.8536765918        0.5566509234
  H         7.5495868037       18.6355817156        0.5564773500
  C        17.6218872915        7.0407461003        0.5558307342
  H        18.3886443562        7.8248448312        0.5563770596
  C        17.6131616861       17.8187958707       11.3783740970
  H        18.3962097549       18.5871247464       11.3791492882
 Xe        15.1441723385       11.3605161513       11.3605090062
