     409
 i =     150, E =    -5183.7576547744
  N         2.9517216378        5.2088858773       16.0342353589
  C         1.6328957681        5.4780657360       16.2989388639
  N        13.7518751253        5.2018641529        5.2018835063
  C        12.4352017562        5.4745141321        5.4745196211
  N        19.6446646012       17.5746324334       16.0180174768
  C        20.9626406923       17.3074709090       16.2913117133
  N         8.8132593924       17.5856666970        5.2228410193
  C        10.1311110736       17.3106057258        5.4859119448
  N        19.6146429314        5.1992490468        6.7549887436
  C        20.9322312682        5.4744839540        6.4904548422
  N         8.8132678166        5.2227021391       17.5855459704
  C        10.1311228255        5.4858514227       17.3105690149
  N         2.9453053522       17.5869710099        6.7672439095
  C         1.6286485956       17.3136409968        6.4952029609
  N        13.7837747523       17.5748192079       17.5747981357
  C        12.4654882792       17.3062080327       17.3061908387
  N        15.9037557298        3.0423614963        5.1983968285
  C        16.1755452499        1.7249101177        5.4685022732
  N        15.9336519996       13.8639732917       16.0166450578
  C        16.2009513921       12.5462953472       16.2875907312
  N        15.9352946755       19.7275121329       17.5716802865
  C        16.2006072210       21.0454304510       17.2993938859
  N        15.9105363486        8.9093400697        6.7552839990
  C        16.1832728610       10.2264271796        6.4856827709
  N         6.6584681547       19.7474063357        5.2237071969
  C         6.3840176406       21.0647179421        5.4918298112
  N         6.6539171923        8.9206760581       16.0240512127
  C         6.3858477505       10.2384847577       16.2941941694
  N         6.6663174610        3.0625637932       17.5942049416
  C         6.4011411149        1.7439136066       17.3225338813
  N         6.6611836458       13.8786300083        6.7595737170
  C         6.3895735901       12.5615718915        6.4905399346
  N         5.1119298423       16.0375738055        3.0591946192
  C         5.3856499277       16.3060233751        1.7421272814
  N         5.0996469334        5.2102751280       13.8803718664
  C         5.3684442889        5.4798707122       12.5622686096
  N        17.4882377175       16.0138224196       19.7294326293
  C        17.2152777510       16.2822311254       21.0468393798
  N        17.4642026220        5.1974654346        8.9066369551
  C        17.1981097392        5.4685794056       10.2246112369
  N         5.0988118340        6.7756901235       19.7442159854
  C         5.3659846765        6.5058771591       21.0626571310
  N         5.1007898613       17.5834640461        8.9227556144
  C         5.3723099674       17.3128076336       10.2399920350
  N        17.4604541663        6.7537893375        3.0445573807
  C        17.1918847524        6.4842345072        1.7266887001
  N        17.4884534834       17.5732175065       13.8625017025
  C        17.2162593086       17.3042034636       12.5452064850
  N         5.0862084610        3.0617955599        6.7737899138
  C         5.3593489620        1.7441076082        6.5051800654
  N         5.1150558426       13.8787547273       17.5880248435
  C         5.3790787137       12.5605598629       17.3151819104
  N        17.4722063483       19.7292099288        6.7525735278
  C        17.1977195134       21.0461409194        6.4838994054
  N        17.4780933434        8.9071021073       17.5768177810
  C        17.2111159287       10.2249551499       17.3058227255
  N         5.1213228245       19.7437991208       16.0335666103
  C         5.3901494701       21.0615805604       16.3037339657
  N         5.0884591351        8.9238964118        5.2219749009
  C         5.3640101826       10.2416492507        5.4855608311
  N        17.4790556565        3.0455072703       16.0131795107
  C        17.2103891153        1.7274810096       16.2821361662
  N        17.4786473057       13.8620732843        5.2011083235
  C        17.2052243298       12.5449246032        5.4699447091
  N         2.9623893283       16.0329865154       17.5889229111
  C         1.6444368907       16.2983865457       17.3144196863
  N        13.7708856165       16.0156530814        6.7572044921
  C        12.4529016624       16.2876898406        6.4912968311
  N        19.6350517788       16.0187463132        5.2007209426
  C        20.9519036906       16.2913163723        5.4735318903
  N         8.8228750529       16.0251116990       16.0250841852
  C        10.1413989867       16.2935065470       16.2934819468
  N        19.6294871788        6.7557432571       17.5764324463
  C        20.9479281830        6.4892604657       17.3078235914
  N         8.8017251876        6.7685215643        6.7685469320
  C        10.1185559558        6.4963660482        6.4963799860
  N         2.9303095701        6.7723928481        5.2171412814
  C         1.6126551073        6.4989653723        5.4830415967
  N        13.7709002099        6.7570544739       16.0155334587
  C        12.4529171422        6.4912385286       16.2876630272
  N        15.9168767676        5.1962842789       19.7254848120
  C        16.1818910374        5.4677839149       21.0438866051
  N        15.9246592648       16.0190064765        8.9090174300
  C        16.1963217827       16.2887104379       10.2261898096
  N        15.9228453615       17.5688773423        3.0432172987
  C        16.1945737398       17.2983489533        1.7259656598
  N        15.9235514781        6.7577202059       13.8645919009
  C        16.1898420338        6.4865516775       12.5467337165
  N         6.6428122814        5.2186509242        3.0637815724
  C         6.3761769727        5.4899456660        1.7457624072
  N         6.6654730027       16.0277556687       13.8759213382
  C         6.3918063738       16.2960582977       12.5588274059
  N         6.6771786244       17.5890676446       19.7447227931
  C         6.4061197103       17.3197696073       21.0625210255
  N         6.6526898852        6.7697635737        8.9247259460
  C         6.3863458062        6.4949634747       10.2416666459
  N        19.6295005586       17.5764215014        6.7557072304
  C        20.9479409397       17.3078067179        6.4892213178
  N         8.8270285449       17.5816169901       17.5815903269
  C        10.1441596011       17.3096131695       17.3095882690
  N         2.9303094196        5.2171242652        6.7724064424
  C         1.6126556308        5.4830273665        6.4989782420
  N        13.7687954730        5.1998826773       17.5700446184
  C        12.4515416279        5.4749188814       17.3033319386
  N         2.9623881819       17.5889286712       16.0329819580
  C         1.6444371380       17.3144222466       16.2983848840
  N        13.7687821652       17.5701654572        5.2000338416
  C        12.4515281665       17.3033597825        5.4749774433
  N        19.6350442710        5.2007589463       16.0187571119
  C        20.9518921758        5.4735715203       16.2913332390
  N         8.7965913302        5.2133643353        5.2133889626
  C        10.1149338890        5.4804706014        5.4804840230
  N         6.6772374465       19.7447263437       17.5890137168
  C         6.4061600100       21.0625244468       17.3197461546
  N         6.6526576771        8.9247078819        6.7698026032
  C         6.3863336996       10.2416477781        6.4949732640
  N         6.6428606267        3.0637530063        5.2187171857
  C         6.3761895274        1.7457340990        5.4899658729
  N         6.6654059592       13.8759381476       16.0276863363
  C         6.3917743091       12.5588429320       16.2960330423
  N        15.9228178728        3.0432197202       17.5688778089
  C        16.1945421544        1.7259710894       17.2983452860
  N        15.9235611583       13.8645764662        6.7577204635
  C        16.1898522155       12.5467139660        6.4865507282
  N        15.9168578350       19.7254702579        5.1962879283
  C        16.1818737375       21.0438693164        5.4677861108
  N        15.9247010237        8.9090141439       16.0189866110
  C        16.1963521163       10.2261879415       16.2887031998
  N        17.4722291317        6.7525677755       19.7292274523
  C        17.1977379467        6.4838976677       21.0461624706
  N        17.4780437249       17.5768461242        8.9071024400
  C        17.2110822730       17.3058331343       10.2249529737
  N         5.0861632004        6.7737299480        3.0618288608
  C         5.3593393128        6.5051595526        1.7441391041
  N         5.1151178012       17.5880861728       13.8787329664
  C         5.3791078608       17.3152064659       12.5605414385
  N        17.4790966230       16.0131903892        3.0454984333
  C        17.2104258858       16.2821449471        1.7274696130
  N        17.4786295251        5.2011062209       13.8620928040
  C        17.2052117991        5.4699453252       12.5449486787
  N         5.1212696983       16.0336127880       19.7437841428
  C         5.3901132642       16.3037551465       21.0615708384
  N         5.0884873922        5.2219389943        8.9239231241
  C         5.3640187065        5.4855514728       10.2416732468
  N        17.4882022385       19.7294548315       16.0137882300
  C        17.2152519229       21.0468581476       16.2822163934
  N        17.4642175485        8.9066011565        5.1974900561
  C        17.1981133743       10.2245773594        5.4685857664
  N         5.1119896300        3.0591956695       16.0375564037
  C         5.3857003361        1.7421282631       16.3060100018
  N         5.0996078176       13.8803568626        5.2102916037
  C         5.3684213514       12.5622522588        5.4798751590
  N        17.4604389044        3.0445267706        6.7538151080
  C        17.1918794501        1.7266600938        6.4842417737
  N        17.4884983321       13.8625139414       17.5731758563
  C        17.2162818133       12.5452147041       17.3041933912
  N         5.0988659404       19.7442017686        6.7757296192
  C         5.3660087273       21.0626368343        6.5058919516
  N         5.1007222893        8.9227586369       17.5834201512
  C         5.3722664953       10.2400001226       17.3127847827
  N        19.6146436989        6.7549762254        5.1992619388
  C        20.9322309899        6.4904434397        5.4744958203
  N         8.8149048356        6.7756845646       16.0269293744
  C        10.1321877967        6.5005423422       16.2932633366
  N         2.9452927303        6.7672803085       17.5869809332
  C         1.6286329510        6.4952424552       17.3136584060
  N        13.7572298918        6.7581456707        6.7581643877
  C        12.4388607808        6.4905762914        6.4905813874
  N         2.9517345301       16.0342209884        5.2088491625
  C         1.6329092842       16.2989202705        5.4780269434
  N        13.7802427219       16.0185116439       16.0184935399
  C        12.4629903338       16.2901418515       16.2901260128
  N        19.6446653290       16.0180185389       17.5746323951
  C        20.9626409354       16.2913101866       17.3074726955
  N         8.8148906072       16.0270528873        6.7758237228
  C        10.1321733590       16.2933010434        6.5006023438
  N         6.6662622835       17.5942253681        3.0625720644
  C         6.4010907309       17.3225481316        1.7439196797
  N         6.6612185931        6.7595554644       13.8786357495
  C         6.3895956501        6.4905342899       12.5615820562
  N         6.6584244707        5.2236691856       19.7474164081
  C         6.3839976562        5.4918158448       21.0647339561
  N         6.6539707703       16.0240887486        8.9206755380
  C         6.3858858987       16.2942136734       10.2384806732
  N        15.9353363241       17.5717198393       19.7274989548
  C        16.2006352360       17.2994099634       21.0454179333
  N        15.9105175542        6.7552576184        8.9093684847
  C        16.1832660071        6.4856764113       10.2264556507
  N        15.9037754961        5.1983697693        3.0423842199
  C        16.1755543733        5.4684946223        1.7249330733
  N        15.9336000883       16.0166908225       13.8639681740
  C        16.2009261131       16.2876024498       12.5462916100
 Zn        14.6429498381       14.7241046115       14.7241032203
 Cl        13.4061809828       13.4937912917       13.4937969872
 Zn        14.6103217509        3.9059184511        3.9059307370
 Cl        13.3719527241        2.6768573693        2.6768570594
 Zn         3.8160782929       14.7480328241        3.9127924578
 Cl         2.5816956143       13.5176830876        2.6796926861
 Zn         3.8160995573        3.9128155312       14.7480802558
 Cl         2.5817148553        2.6797234133       13.5177197175
 Zn         7.9481510454        8.0604862942       14.7298738374
 Cl         9.1561797354        9.2994087805       13.4794289131
 Zn         7.9533309417       18.8838673999        3.9368031967
 Cl         9.1910702623       20.1139223264        2.7062387253
 Zn        18.7561103415        8.0466424044        3.9033268169
 Cl        19.9879116384        9.2777631811        2.6695759091
 Zn        18.7793326911       18.8675578601       14.7225583226
 Cl        20.0129550299       20.0958091410       13.4872600817
 Zn         7.9481426948       14.7298811015        8.0604897249
 Cl         9.1561625833       13.4794105215        9.2993905632
 Zn         7.9533385613        3.9367832978       18.8838773114
 Cl         9.1910856941        2.7062416751       20.1139528448
 Zn        18.7793441027       14.7225576223       18.8675553437
 Cl        20.0129542799       13.4872537885       20.0958168380
 Zn        18.7560981845        3.9033165856        8.0466574989
 Cl        19.9879209050        2.6695768655        9.2777652985
 Zn        14.6180283513        8.0516608695        8.0516748234
 Cl        13.3928860249        9.2872895802        9.2872916535
 Zn        14.6495213978       18.8685027447       18.8684955689
 Cl        13.4169339525       20.1009217931       20.1009252135
 Zn         3.8039952338        8.0624562712       18.8769902297
 Cl         2.5758863531        9.3018303257       20.1065019282
 Zn         3.8040350336       18.8769676962        8.0624408567
 Cl         2.5759059572       20.1064653563        9.3018003641
 Zn        14.6326366873       14.7240184492        8.0522069119
 Cl        13.3972932564       13.4950773530        9.2850507246
 Zn        14.6267034097        3.9023248222       18.8612572847
 Cl        13.3923968172        2.6686501188       20.0899343271
 Zn         3.8294433449       14.7434865379       18.8815468699
 Cl         2.5969421075       13.5114132680       20.1153222885
 Zn         3.7934815337        3.9298521072        8.0637766900
 Cl         2.5649247935        2.6983796699        9.3016661957
 Zn         7.9445730580        8.0632085013        8.0632210636
 Cl         9.2287802615        9.2697920069        9.2697942412
 Zn         7.9679689690       18.8775941082       18.8775913218
 Cl         9.2096657474       20.1055591324       20.1055549256
 Zn        18.7672546785        8.0463200254       18.8727942605
 Cl        19.9990948045        9.2778617869       20.1061397692
 Zn        18.7672525356       18.8727712473        8.0462999815
 Cl        19.9990901347       20.1061205019        9.2778398682
 Zn        14.6326424760        8.0521973719       14.7240309704
 Cl        13.3972931779        9.2850527532       13.4951103386
 Zn        14.6266943012       18.8612312789        3.9023315322
 Cl        13.3923972431       20.0898984853        2.6686360180
 Zn         3.7934678514        8.0637634261        3.9298669457
 Cl         2.5649347255        9.3016698078        2.6983855305
 Zn         3.8294616345       18.8815516432       14.7434845154
 Cl         2.5969461964       20.1153106065       13.5114117832
 Zn         7.9556274416       14.7320439742       14.7320261865
 Cl         9.1757515880       13.4933420175       13.4933452631
 Zn         7.9346399248        3.9250852168        3.9251243980
 Cl         9.1618622318        2.6896997041        2.6897005499
 Zn        18.7726434739       14.7222194051        3.9081287885
 Cl        20.0051856174       13.4879042068        2.6782792631
 Zn        18.7726303555        3.9081547658       14.7222486195
 Cl        20.0051617298        2.6783028409       13.4879333571
 Zn         5.8847996352        5.9974320541       16.8153667347
 Zn        16.7148505087       16.7923169630       16.7922674703
 Zn        16.6785157863        5.9733034905        5.9733741915
 Zn         5.8847889460       16.8153938681        5.9974551844
 Zn         5.8627431079        5.9985741499        5.9986067516
 Zn        16.7054331192       16.7922829531        5.9738245620
 Zn         5.8963809866       16.8141317328       16.8140946064
 Zn        16.7054367809        5.9737886792       16.7922478884
  N         3.6952168709        5.9886833507       16.8128360862
  N        14.5007087424        5.9787982730        5.9788264442
  N        18.8984951647       16.7947888131       16.7947882616
  N         8.0675709347       16.8089362504        6.0023386644
  N        18.8678895860        5.9742681228        5.9742824135
  N         8.0675836349        6.0021385140       16.8087514606
  N         3.6952305727       16.8128305705        5.9886376300
  N        14.5284094895       16.7959134126       16.7958835210
  N        16.6813278232        3.7898275900        5.9759805545
  N        16.7121109380       14.6097924170       16.7945849871
  N        16.7136201392       18.9816130652       16.7937674311
  N        16.6856302693        8.1613035603        5.9758986987
  N         5.8806435530       18.9993581403        6.0002132110
  N         5.8766800261        8.1756205364       16.8041477035
  N         5.8866618464        3.8075505644       16.8167735802
  N         5.8809951501       14.6262873659        5.9852587954
  N         5.8865829313       16.8168108820        3.8075576421
  N         5.8810459322        5.9852301791       14.6262940207
  N        16.7136721786       16.7938205272       18.9815939632
  N        16.6856063680        5.9758620126        8.1613384664
  N         5.8805798491        6.0001614145       18.9993696600
  N         5.8767610621       16.8042062346        8.1756189194
  N        16.6813520014        5.9759431693        3.7898565191
  N        16.7120402739       16.7946527144       14.6097834452
  N         5.8629769745        3.8093199956        5.9954876412
  N         5.8927634117       14.6241913526       16.8091060421
  N        16.6971477407       18.9806404746        5.9735996892
  N        16.7001935497        8.1613394954       16.7982873882
  N         5.8995776473       18.9977505908       16.8113246664
  N         5.8676903255        8.1778642919        5.9987655862
  N        16.7003211675        3.7907553230       16.7914333395
  N        16.7028705340       14.6098134952        5.9800135418
  N         3.7088947566       16.8134408088       16.8134360278
  N        14.5164569946       16.7916754199        5.9763779116
  N        18.8860482823       16.7967428881        5.9765685614
  N         8.0787393838       16.8044658380       16.8044273336
  N        18.8860371524        5.9766131344       16.7967479000
  N         8.0523902837        5.9923312521        5.9923624088
  N         3.6770028415        5.9968018736        5.9968158607
  N        14.5164698226        5.9761658295       16.7914944186
  N        16.6971723225        5.9735936862       18.9806533042
  N        16.7001305972       16.7983265186        8.1613435692
  N        16.7003655978       16.7914447530        3.7907518778
  N        16.7028525895        5.9800104141       14.6098284010
  N         5.8629098344        5.9954019254        3.8093513315
  N         5.8928537372       16.8091989160       14.6241702145
  N         5.8995000967       16.8113975513       18.9977397083
  N         5.8677347364        5.9987137208        8.1778872768
  C        11.3006102352       15.7416117103       15.7415927011
  H        11.2986139927       14.9660856670       14.9660514176
  C        11.2723037737        4.9269719627        4.9269779254
  H        11.2679180230        4.1514410969        4.1514516186
  C         0.4752320480       15.7445363989        4.9256248225
  H         0.4800415348       14.9690365677        4.1500345195
  C         0.4752197447        4.9256675451       15.7445541897
  H         0.4800296265        4.1500941745       14.9690399314
  C        11.2933826943        7.0458093094       15.7395559133
  H        11.2955040266        7.8209767907       14.9636938377
  C        11.2904814236       17.8575129869        4.9300107850
  H        11.2888490831       18.6336861296        4.1550054747
  C         0.4524499111        7.0456347967        4.9286876374
  H         0.4525523951        7.8216723663        4.1536087467
  C         0.4835800239       17.8608405444       15.7444482923
  H         0.4837847381       18.6364138966       14.9689272730
  C        11.2933649838       15.7395989018        7.0458815131
  H        11.2954780831       14.9638815355        7.8211942556
  C        11.2904928094        4.9299386412       17.8574685263
  H        11.2888599092        4.1547873821       18.6334967967
  C         0.4835816496       15.7444461344       17.8608417281
  H         0.4837908560       14.9689235808       18.6364157299
  C         0.4524496493        4.9286754486        7.0456456217
  H         0.4525499183        4.1535970019        7.8216822451
  C        11.2814310594        7.0440209678        7.0440270785
  H        11.2842472919        7.8196295243        7.8196400578
  C        11.3063956152       17.8581171912       17.8580964231
  H        11.3086589957       18.6336841457       18.6336470730
  C         0.4656051408        7.0432228613       17.8605648203
  H         0.4611596429        7.8192286663       18.6356773306
  C         0.4656203734       17.8605468511        7.0431782238
  H         0.4611881710       18.6356743763        7.8191660682
  C        15.6484951374       11.3870303630       15.7371258501
  H        14.8732970834       11.3883848039       14.9611858954
  C        15.6278023272        0.5630932536        4.9182710971
  H        14.8518402608        0.5610373059        4.1431415698
  C         4.8132279823       11.4017957376        4.9345584919
  H         4.0342837517       11.4010207747        4.1624410406
  C         4.8379344264        0.5813391502       15.7539482337
  H         4.0623760617        0.5804741365       14.9782904848
  C        15.6364419089       11.3878717441        7.0370536088
  H        14.8615363942       11.3898282265        7.8132873520
  C        15.6470692908        0.5645449634       17.8493043140
  H        14.8718426472        0.5625405051       18.6252159422
  C         4.8265145716       11.4013361706       17.8657800549
  H         4.0534126333       11.4028142337       18.6437860438
  C         4.8118688285        0.5820291081        7.0552847167
  H         4.0359328817        0.5796951668        7.8304091872
  C         6.9372815384       11.3977294604       15.7425396349
  H         7.7106489101       11.3962810717       14.9647619616
  C         6.9312366811        0.5865894830        4.9413510487
  H         7.7079889406        0.5889954905        4.1669650410
  C        17.7517066654       11.3834242548        4.9183000043
  H        18.5267595071       11.3814045020        4.1422476243
  C        17.7625175740        0.5682572422       15.7309153691
  H        18.5374568419        0.5700940900       14.9547386993
  C         6.9432613320       11.4017827969        7.0381367273
  H         7.7245458738       11.4032038107        7.8075690124
  C         6.9542429562        0.5838038565       17.8712490269
  H         7.7297345579        0.5846562627       18.6467826762
  C        17.7638805311       11.3842457657       17.8559240808
  H        18.5389051023       11.3830238337       18.6320099299
  C        17.7448182419        0.5676675669        7.0348573405
  H        18.5202594547        0.5697387088        7.8105524840
  C        15.6484612931       15.7371356577       11.3870320558
  H        14.8732201635       14.9612378294       11.3883953474
  C        15.6278194168        4.9182672819        0.5631098106
  H        14.8518719142        4.1431241459        0.5610519615
  C         4.8378905107       15.7539683775        0.5813273764
  H         4.0622911339       14.9783509000        0.5804386803
  C         4.8132412520        4.9345514798       11.4018212427
  H         4.0343204685        4.1624112808       11.4010740344
  C         6.9373247395       15.7425617159       11.3977220300
  H         7.7107460011       14.9648365063       11.3962727468
  C         6.9312143654        4.9413361528        0.5866085993
  H         7.7079248801        4.1669091162        0.5890212397
  C        17.7625528708       15.7309324018        0.5682366442
  H        18.5375245967       14.9547863355        0.5700565364
  C        17.7517002491        4.9182954880       11.3834584645
  H        18.5267404411        4.1422315315       11.3814621975
  C        15.6364288497        7.0370526613       11.3878940848
  H        14.8615078295        7.8132719390       11.3898547079
  C        15.6471055011       17.8493147486        0.5645392575
  H        14.8719104962       18.6252569296        0.5625429964
  C         4.8118513779        7.0552618165        0.5820601787
  H         4.0358716565        7.8303434855        0.5797528524
  C         4.8265544407       17.8658109108       11.4013181908
  H         4.0535084374       18.6438713183       11.4027758195
  C         6.9432818895        7.0381321900       11.4017937092
  H         7.7245905732        7.8075414150       11.4032090002
  C         6.9541905521       17.8712672930        0.5838096037
  H         7.7296401734       18.6468408215        0.5846769674
  C        17.7448282554        7.0348527417        0.5676972713
  H        18.5202802158        7.8105380669        0.5697874676
  C        17.7638496211       17.8559379185       11.3842375501
  H        18.5388312876       18.6320647119       11.3830064485
 Xe         5.7267287281       10.5274025231       10.5274271122
