     409
 i =     150, E =    -5183.7576379070
  N         2.7992309881        5.1943996362       16.0002799109
  C         1.4812862963        5.4657565180       16.2686529998
  N        13.6123416061        5.1607412410        5.1607403173
  C        12.2938748524        5.4302458684        5.4302459396
  N        19.4865068472       17.5555165648       16.0000296537
  C        20.8046301048       17.2878874809       16.2718267207
  N         8.6578483448       17.5838498328        5.1759412366
  C         9.9772626726       17.3175311363        5.4408183338
  N        19.4748277130        5.2004188491        6.7567930513
  C        20.7925225613        5.4719152250        6.4880067016
  N         8.6578471668        5.1759416372       17.5838508207
  C         9.9772613632        5.4408201215       17.3175334426
  N         2.7991344361       17.5515102362        6.7550736324
  C         1.4811877108       17.2820218729        6.4845135141
  N        13.6217102878       17.5875975977       17.5875965398
  C        12.3033034055       17.3183424527       17.3183416561
  N        15.7900049598        3.0314459886        5.1861681365
  C        16.0585891988        1.7148066381        5.4607015031
  N        15.7500522610       13.8541275379       16.0016147643
  C        16.0223689451       12.5363027191       16.2676599575
  N        15.7918284584       19.7184104543       17.5674006967
  C        16.0599274332       21.0351310195       17.2933552917
  N        15.7457066061        8.8967118889        6.7473310735
  C        16.0173483664       10.2151471394        6.4820136989
  N         6.4922725152       19.7211265295        5.1925225005
  C         6.2208301320       21.0373958810        5.4647223933
  N         6.5294070009        8.8972539551       16.0058167515
  C         6.2617612372       10.2160394742       16.2757038503
  N         6.4972047629        3.0348469880       17.5751023699
  C         6.2295112728        1.7177287218       17.3020225013
  N         6.5239935209       13.8536418421        6.7375291524
  C         6.2512663960       12.5356119430        6.4708573101
  N         4.9516834338       16.0092795223        3.0354004433
  C         5.2201214697       16.2795239008        1.7176077561
  N         4.9609219641        5.1893083317       13.8536597976
  C         5.2303457769        5.4597925954       12.5362681183
  N        17.3327489465       15.9971819439       19.7156811996
  C        17.0661148000       16.2676593887       21.0343778302
  N        17.3119301958        5.2023050664        8.8994331258
  C        17.0405478911        5.4732554793       10.2162878625
  N         4.9450728464        6.7563547829       19.7162165455
  C         5.2103527354        6.4861587002       21.0352075141
  N         4.9653820780       17.5528181885        8.9004948265
  C         5.2402760857       17.2861872948       10.2173648590
  N        17.3307490583        6.7569392293        3.0346086496
  C        17.0645931097        6.4865985234        1.7160043304
  N        17.3194071150       17.5438510915       13.8531055787
  C        17.0474165667       17.2745706525       12.5359046766
  N         4.9367762496        3.0347964109        6.7522421279
  C         5.2068204223        1.7166735084        6.4837185318
  N         4.9695440920       13.8545305021       17.5582561869
  C         5.2418524739       12.5373365380       17.2893225730
  N        17.3335790096       19.7154975088        6.7571971047
  C        17.0664511102       21.0343259630        6.4872007717
  N        17.3173337807        8.8991964797       17.5453811162
  C        17.0460778829       10.2161318404       17.2750289577
  N         4.9561452854       19.7185527567       16.0057877911
  C         5.2219160592       21.0369387678       16.2773008975
  N         4.9530330045        8.8996136443        5.1913503721
  C         5.2268577086       10.2162506695        5.4609858374
  N        17.3304607112        3.0342756885       15.9981067513
  C        17.0644811877        1.7158027988       16.2686102146
  N        17.3145172084       13.8532203620        5.2030833851
  C        17.0422166060       12.5361769087        5.4733213489
  N         2.8043044700       16.0030973594       17.5588481966
  C         1.4862887987       16.2734021647       17.2894566993
  N        13.6173194892       16.0329857338        6.7164100462
  C        12.3002827077       16.3040600986        6.4482202871
  N        19.4817681757       15.9983567227        5.1955073574
  C        20.7997337747       16.2676974673        5.4661422476
  N         8.6702330730       16.0243223646       16.0243223239
  C         9.9856083390       16.2983347058       16.2983342429
  N        19.4815768639        6.7547347169       17.5509609030
  C        20.7995851229        6.4843363715       17.2816474953
  N         8.6603318809        6.7256017034        6.7256023717
  C         9.9762052865        6.4516483487        6.4516484033
  N         2.7913450849        6.7555379936        5.1993800820
  C         1.4736076173        6.4874448401        5.4714086119
  N        13.6173166560        6.7164114730       16.0329886381
  C        12.3002808550        6.4482222760       16.3040625947
  N        15.7926388716        5.1869157980       19.7188216938
  C        16.0603289117        5.4614434572       21.0353984165
  N        15.7485822613       16.0031845427        8.8965225112
  C        16.0211364713       16.2680882282       10.2148527209
  N        15.7895004818       17.5686670652        3.0316832188
  C        16.0583317259       17.2943892780        1.7148876026
  N        15.7481808632        6.7486738330       13.8547941177
  C        16.0191071950        6.4822501410       12.5368030159
  N         6.4848924990        5.1885151837        3.0336257635
  C         6.2175153817        5.4624255399        1.7167509965
  N         6.5336348578       16.0105670355       13.8559422129
  C         6.2632271907       16.2786718124       12.5377448096
  N         6.5018210849       17.5708459673       19.7211913779
  C         6.2314703310       17.2996050486       21.0380099824
  N         6.5166092388        6.7387217636        8.8952329554
  C         6.2480353621        6.4717653305       10.2141853473
  N        19.4815797561       17.5509624994        6.7547340786
  C        20.7995885416       17.2816493238        6.4843343473
  N         8.6622334325       17.5803473327       17.5803465046
  C         9.9815923735       17.3142139340       17.3142129619
  N         2.7913449525        5.1993805648        6.7555367748
  C         1.4736075727        5.4714093106        6.4874434955
  N        13.6171906872        5.1644842471       17.5913621059
  C        12.2988790542        5.4344539244       17.3220967192
  N         2.8043044590       17.5588480929       16.0030972553
  C         1.4862888084       17.2894562116       16.2734023370
  N        13.6171936472       17.5913591792        5.1644835584
  C        12.2988807259       17.3220937038        5.4344525271
  N        19.4817661206        5.1955080226       15.9983542930
  C        20.7997306243        5.4661438479       16.2676951903
  N         8.6525184174        5.1703546370        5.1703564722
  C         9.9719916084        5.4357973247        5.4357980226
  N         6.5018206930       19.7211917318       17.5708463453
  C         6.2314693214       21.0380102685       17.2996061638
  N         6.5166088097        8.8952319096        6.7387241138
  C         6.2480359103       10.2141842689        6.4717661444
  N         6.4848898508        3.0336262798        5.1885152316
  C         6.2175133276        1.7167511460        5.4624248475
  N         6.5336351959       13.8559411713       16.0105673573
  C         6.2632269070       12.5377439555       16.2786724905
  N        15.7894960281        3.0316807595       17.5686647873
  C        16.0583287779        1.7148863855       17.2943873538
  N        15.7481943218       13.8547946260        6.7486836080
  C        16.0190993783       12.5368027469        6.4822381662
  N        15.7926383891       19.7188204400        5.1869181433
  C        16.0603280852       21.0353981956        5.4614455901
  N        15.7485779511        8.8965220668       16.0031861251
  C        16.0211380981       10.2148512629       16.2680844426
  N        17.3335783026        6.7571968607       19.7154985370
  C        17.0664513172        6.4872003420       21.0343261161
  N        17.3173391619       17.5453779265        8.8991974966
  C        17.0460763550       17.2750319560       10.2161336272
  N         4.9367780403        6.7522407687        3.0347970784
  C         5.2068215912        6.4837182434        1.7166738462
  N         4.9695440854       17.5582563041       13.8545307645
  C         5.2418529495       17.2893220924       12.5373370741
  N        17.3304631537       15.9981078692        3.0342772133
  C        17.0644827710       16.2686120537        1.7158035273
  N        17.3145037282        5.2030734570       13.8532202982
  C        17.0422248501        5.4733327910       12.5361776319
  N         4.9561451289       16.0057879345       19.7185522676
  C         5.2219166686       16.2773001340       21.0369382498
  N         4.9530316498        5.1913494761        8.8996149620
  C         5.2268562286        5.4609859044       10.2162519511
  N        17.3327485439       19.7156807958       15.9971789892
  C        17.0661155624       21.0343771330       16.2676581157
  N        17.3119371612        8.8994323087        5.2023118575
  C        17.0405321720       10.2162873915        5.4732389705
  N         4.9516830911        3.0354010256       16.0092800932
  C         5.2201201961        1.7176083016       16.2795247203
  N         4.9609229273       13.8536584379        5.1893080017
  C         5.2303474521       12.5362668199        5.4597922289
  N        17.3307501179        3.0346082039        6.7569380986
  C        17.0645929006        1.7160036900        6.4865999766
  N        17.3194044644       13.8531046827       17.5438535816
  C        17.0474211964       12.5359039582       17.2745646890
  N         4.9450740536       19.7162160991        6.7563554653
  C         5.2103532621       21.0352070917        6.4861584330
  N         4.9653810009        8.9004938851       17.5528185865
  C         5.2402748674       10.2173640619       17.2861882619
  N        19.4748274216        6.7567913234        5.2004194948
  C        20.7925224806        6.4880056695        5.4719161630
  N         8.6662060491        6.7263648775       16.0230716263
  C         9.9817217474        6.4537295141       16.2987635058
  N         2.7991322472        6.7550730651       17.5515108138
  C         1.4811855481        6.4845153273       17.2820196356
  N        13.6126452448        6.7156053509        6.7156026349
  C        12.2952877514        6.4461463497        6.4461455733
  N         2.7992329761       16.0002787212        5.1944006352
  C         1.4812883814       16.2686545020        5.4657547169
  N        13.6206055934       16.0320241227       16.0320223986
  C        12.3039717915       16.3024214563       16.3024206042
  N        19.4865067921       16.0000293146       17.5555162250
  C        20.8046300436       16.2718268747       17.2878872025
  N         8.6662070581       16.0230704709        6.7263645179
  C         9.9817231867       16.2987610452        6.4537279448
  N         6.4972053592       17.5751016082        3.0348468462
  C         6.2295128009       17.3020215286        1.7177284846
  N         6.5239940324        6.7375279941       13.8536427840
  C         6.2512655253        6.4708567144       12.5356129801
  N         6.4922725693        5.1925232607       19.7211267684
  C         6.2208306271        5.4647237153       21.0373961068
  N         6.5294078811       16.0058161705        8.8972547216
  C         6.2617623256       16.2757027665       10.2160402705
  N        15.7918289030       17.5674037477       19.7184115293
  C        16.0599266117       17.2933568589       21.0351321768
  N        15.7456996860        6.7473239549        8.8967119945
  C        16.0173640654        6.4820303332       10.2151471640
  N        15.7900058583        5.1861672384        3.0314470625
  C        16.0585909091        5.4606990443        1.7148075838
  N        15.7500558762       16.0016113815       13.8541279482
  C        16.0223646234       16.2676652190       12.5363031705
 Zn        14.4494775804       14.7283418504       14.7283422844
 Cl        13.1171663144       13.5485985626       13.5485986991
 Zn        14.5003522764        3.8815326257        3.8815326638
 Cl        13.3071622329        2.6296503086        2.6296523812
 Zn         3.6671175547       14.7138630680        3.8985895099
 Cl         2.4343315937       13.4780339338        2.6692042552
 Zn         3.6671172494        3.8985899939       14.7138642917
 Cl         2.4343324902        2.6692036691       13.4780352857
 Zn         7.8211645004        8.0193980115       14.7201678801
 Cl         9.0583098557        9.2499319922       13.4906742242
 Zn         7.7854490114       18.8751978073        3.8934022677
 Cl         9.0057660563       20.1168489464        2.6582161598
 Zn        18.6117162485        8.0513361192        3.9069967261
 Cl        19.8426456511        9.2980266415        2.6880603071
 Zn        18.6157064996       18.8384638807       14.7078156776
 Cl        19.8428210821       20.0624377814       13.4602753074
 Zn         7.8211630139       14.7201675024        8.0193982883
 Cl         9.0583114389       13.4906743881        9.2499294865
 Zn         7.7854491490        3.8934016464       18.8751990441
 Cl         9.0057658081        2.6582159869       20.1168515847
 Zn        18.6157057262       14.7078158356       18.8384649740
 Cl        19.8428209096       13.4602758678       20.0624391368
 Zn        18.6117145132        3.9069963641        8.0513359733
 Cl        19.8426469885        2.6880636806        9.2980262855
 Zn        14.4457523402        8.0146826564        8.0146828758
 Cl        13.1052099428        9.1911121696        9.1911095662
 Zn        14.5018799421       18.8731188888       18.8731181661
 Cl        13.3012468741       20.1206722589       20.1206714710
 Zn         3.6654386120        8.0511680209       18.8386611774
 Cl         2.4291947870        9.2890420062       20.0630417477
 Zn         3.6654387385       18.8386614308        8.0511696449
 Cl         2.4291967321       20.0630432011        9.2890447439
 Zn        14.4479771802       14.7312555339        8.0167776674
 Cl        13.1119603089       13.5694379366        9.2114548488
 Zn        14.5010430450        3.8841448128       18.8756083630
 Cl        13.3039588957        2.6327095662       20.1234597690
 Zn         3.6729014855       14.7124366051       18.8474597620
 Cl         2.4399803538       13.4761634387       20.0768104744
 Zn         3.6520025399        3.9025662125        8.0479880685
 Cl         2.4167810664        2.6800326215        9.2871216941
 Zn         7.8082446248        8.0205257501        8.0205274532
 Cl         9.0481201892        9.2500191300        9.2500214196
 Zn         7.7913881584       18.8702932978       18.8702931409
 Cl         9.0158217454       20.1066253418       20.1066238352
 Zn        18.6151173036        8.0506717788       18.8373077799
 Cl        19.8455193696        9.2922640823       20.0632269597
 Zn        18.6151184430       18.8373073723        8.0506715475
 Cl        19.8455196042       20.0632279021        9.2922640929
 Zn        14.4479730036        8.0167775733       14.7312561815
 Cl        13.1119608332        9.2114589114       13.5694383144
 Zn        14.5010446962       18.8756072786        3.8841464565
 Cl        13.3039616011       20.1234592173        2.6327106626
 Zn         3.6520075081        8.0479870123        3.9025662181
 Cl         2.4167832875        9.2871207667        2.6800357888
 Zn         3.6729013064       18.8474614576       14.7124363597
 Cl         2.4399806469       20.0768099984       13.4761602281
 Zn         7.8291991264       14.7236382268       14.7236384426
 Cl         9.0653321883       13.4937451025       13.4937466916
 Zn         7.7753729207        3.8879316285        3.8879327327
 Cl         8.9880167379        2.6454492960        2.6454488420
 Zn        18.6131086771       14.7078264816        3.9056370069
 Cl        19.8403029316       13.4550910595        2.6882618251
 Zn        18.6131064887        3.9056353738       14.7078253684
 Cl        19.8403042330        2.6882643855       13.4550902214
 Zn         5.7328241781        5.9627800495       16.7825783224
 Zn        16.5505505869       16.7831324483       16.7831323148
 Zn        16.5478008838        5.9596516725        5.9596544384
 Zn         5.7328248523       16.7825780047        5.9627804467
 Zn         5.7245582864        5.9613004367        5.9613016224
 Zn        16.5497166491       16.7842523534        5.9600373326
 Zn         5.7379368325       16.7832631625       16.7832635320
 Zn        16.5497114528        5.9600335614       16.7842531359
  N         3.5455635273        5.9744999819       16.7761979845
  N        14.3591932139        5.9388923454        5.9388882679
  N        18.7398794420       16.7764547476       16.7764547398
  N         7.9154651642       16.8009274713        5.9531419507
  N        18.7285765401        5.9777401506        5.9777416393
  N         7.9154643283        5.9531417979       16.8009278143
  N         3.5455657752       16.7761956313        5.9745020571
  N        14.3676386995       16.8088519161       16.8088499300
  N        16.5596980558        3.7793642853        5.9701380672
  N        16.5347633663       14.6001584183       16.7741031692
  N        16.5617446855       18.9704816964       16.7835714811
  N        16.5288317137        8.1512180486        5.9724832597
  N         5.7205712291       18.9719700419        5.9736419421
  N         5.7449598655        8.1522527599       16.7786295396
  N         5.7243179025        3.7815810024       16.7927473871
  N         5.7432502883       14.6000953107        5.9623309883
  N         5.7243179847       16.7927470018        3.7815806705
  N         5.7432504168        5.9623303442       14.6000964070
  N        16.5617459493       16.7835757075       18.9704820555
  N        16.5288158557        5.9724668090        8.1512186540
  N         5.7205702448        5.9736417904       18.9719703713
  N         5.7449610112       16.7786292133        8.1522535569
  N        16.5596964198        5.9701401767        3.7793648737
  N        16.5347700928       16.7740963738       14.6001591307
  N         5.7102720570        3.7805818492        5.9688199565
  N         5.7507786923       14.6015943456       16.7844506487
  N        16.5626818269       18.9706405449        5.9703571464
  N        16.5328717157        8.1510302351       16.7764261086
  N         5.7303712664       18.9731154047       16.7883756234
  N         5.7333478068        8.1507782307        5.9642311443
  N        16.5592512074        3.7793280957       16.7844124289
  N        16.5315805244       14.6005703334        5.9742051061
  N         3.5507464922       16.7805757628       16.7805757922
  N        14.3638776311       16.8109517464        5.9406596531
  N        18.7352252160       16.7746424847        5.9751011883
  N         7.9197757361       16.8001524945       16.8001522683
  N        18.7352227343        5.9751034795       16.7746381968
  N         7.9097203247        5.9501664820        5.9501680480
  N         3.5377641443        5.9762499634        5.9762491836
  N        14.3638746214        5.9406616289       16.8109553865
  N        16.5626823251        5.9703552520       18.9706416887
  N        16.5328737157       16.7764270828        8.1510308705
  N        16.5592526859       16.7844119989        3.7793301783
  N        16.5315692171        5.9741975273       14.6005695740
  N         5.7102744621        5.9688189241        3.7805820036
  N         5.7507783562       16.7844506832       14.6015949918
  N         5.7303709556       16.7883759385       18.9731150298
  N         5.7333477851        5.9642289572        8.1507794421
  C        11.1464501316       15.7498908232       15.7498904808
  H        11.1518532917       14.9742801594       14.9742802569
  C        11.1304483048        4.8824420848        4.8824428035
  H        11.1254027986        4.1069916125        4.1069931057
  C         0.3206437404       15.7188773847        4.9148184494
  H         0.3211249184       14.9441943906        4.1384453202
  C         0.3206420118        4.9148201793       15.7188757562
  H         0.3211223822        4.1384452012       14.9441953119
  C        11.1432427905        7.0005163870       15.7499938539
  H        11.1496742543        7.7751554701       14.9733998928
  C        11.1355940412       17.8719335926        4.8885279695
  H        11.1303903636       18.6492439194        4.1149181760
  C         0.3131126642        7.0386701234        4.9219926290
  H         0.3133597804        7.8148828783        4.1470914897
  C         0.3254618487       17.8391145036       15.7225718683
  H         0.3257440973       18.6140182543       14.9463892012
  C        11.1432445649       15.7499918649        7.0005141553
  H        11.1496754628       14.9733986812        7.7751542010
  C        11.1355919335        4.8885296923       17.8719365614
  H        11.1303901028        4.1149196534       18.6492462101
  C         0.3254612420       15.7225721122       17.8391148646
  H         0.3257410910       14.9463899525       18.6140191167
  C         0.3131141396        4.9219921082        7.0386696000
  H         0.3133644637        4.1470904428        7.8148818070
  C        11.1380199099        6.9992800608        6.9992795122
  H        11.1445252012        7.7748935781        7.7748930686
  C        11.1405612321       17.8668622050       17.8668611621
  H        11.1364683323       18.6423384370       18.6423371974
  C         0.3202725835        7.0360343958       17.8307105935
  H         0.3202767604        7.8136068391       18.6042579119
  C         0.3202747246       17.8307129728        7.0360321754
  H         0.3202767550       18.6042591428        7.8136061749
  C        15.4662583659       11.3757051235       15.7228173143
  H        14.6805619995       11.3756965217       14.9580723019
  C        15.5143473261        0.5545602713        4.9051195237
  H        14.7472409223        0.5537268086        4.1209584991
  C         4.6751810965       11.3768190720        4.9129320686
  H         3.8956932563       11.3775734827        4.1412860063
  C         4.6739739001        0.5573181128       15.7243465087
  H         3.9033259425        0.5576747265       14.9439574251
  C        15.4637410792       11.3762615052        7.0282901767
  H        14.6801564135       11.3765578557        7.7952126111
  C        15.5140961476        0.5544271760       17.8497313473
  H        14.7467519027        0.5534938951       18.6335828879
  C         4.6879995869       11.3770442913       17.8357125013
  H         3.9082054627       11.3763730545       18.6071590103
  C         4.6613035925        0.5556250589        7.0386030350
  H         3.8901128039        0.5552998259        7.8184111965
  C         6.8161017161       11.3771532298       15.7301658243
  H         7.5954400188       11.3778760041       14.9585253896
  C         6.7668530533        0.5573353318        4.9102158653
  H         7.5381004378        0.5577667757        4.1302755144
  C        17.5957909157       11.3758896742        4.9269691204
  H        18.3769154205       11.3755317297        4.1568612844
  C        17.6103353848        0.5556255838       15.7122339444
  H        18.3785050465        0.5565353037       14.9294691511
  C         6.8026495479       11.3743082907        7.0192666187
  H         7.5818287873       11.3736220030        7.7911837542
  C         6.7776042878        0.5577931342       17.8548373288
  H         7.5484705062        0.5576595293       18.6351218934
  C        17.6022143913       11.3758435238       17.8203898450
  H        18.3838067232       11.3757609756       18.5901095869
  C        17.6103728122        0.5556700109        7.0428357813
  H        18.3785340673        0.5564800629        7.8255569569
  C        15.4662544921       15.7228227308       11.3757052409
  H        14.6805631754       14.9580719752       11.3756980262
  C        15.5143495088        4.9051163198        0.5545609402
  H        14.7472440019        4.1209548466        0.5537243804
  C         4.6739747856       15.7243459544        0.5573179548
  H         3.9033259831       14.9439577057        0.5576755917
  C         4.6751789075        4.9129328703       11.3768202027
  H         3.8956910252        4.1412869028       11.3775736196
  C         6.8161024257       15.7301645861       11.3771544902
  H         7.5954405400       14.9585238500       11.3778779288
  C         6.7668549940        4.9102176684        0.5573346151
  H         7.5381029681        4.1302780399        0.5577652733
  C        17.6103353414       15.7122355812        0.5556260423
  H        18.3785060715       14.9294716579        0.5565343831
  C        17.5958065059        4.9269867020       11.3758900330
  H        18.3769171644        4.1568648476       11.3755343836
  C        15.4637565745        7.0283082291       11.3762597306
  H        14.6801580387        7.7952164853       11.3765540563
  C        15.5140972710       17.8497332019        0.5544294464
  H        14.7467541038       18.6335861740        0.5534964386
  C         4.6613031053        7.0386027144        0.5556261872
  H         3.8901111884        7.8184098832        0.5553021532
  C         4.6880004517       17.8357115795       11.3770444822
  H         3.9082060945       18.6071577085       11.3763720225
  C         6.8026490850        7.0192657086       11.3743096811
  H         7.5818291526        7.7911819794       11.3736250826
  C         6.7776058042       17.8548360783        0.5577923685
  H         7.5484718015       18.6351209560        0.5576573877
  C        17.6103726402        7.0428351899        0.5556710398
  H        18.3785328617        7.8255569887        0.5564824608
  C        17.6022101975       17.8203955869       11.3758441141
  H        18.3838074626       18.5901107811       11.3757607129
 Xe        15.4526209591       11.3598865721       11.3598882409
