     409
 i =     150, E =    -5183.7416282577
  N         2.8198966696        5.1976947796       15.9961963278
  C         1.5026681620        5.4682137854       16.2663083460
  N        13.6246392059        5.1134460986        5.1134453230
  C        12.3073834493        5.3881818814        5.3881810087
  N        19.5161513082       17.5553086363       16.0004702401
  C        20.8337332486       17.2869208620       16.2710542383
  N         8.6700087082       17.5966228355        5.1589363732
  C         9.9924994696       17.3379353969        5.4156472125
  N        19.4951571480        5.2026439536        6.7587651043
  C        20.8129984629        5.4729805604        6.4890238606
  N         8.6700072298        5.1589355426       17.5966243493
  C         9.9924974981        5.4156472797       17.3379369967
  N         2.8210904400       17.5480993099        6.7571245988
  C         1.5035349772       17.2804493719        6.4859873318
  N        13.6418876191       17.6242455899       17.6242444104
  C        12.3249264153       17.3501803070       17.3501793715
  N        15.8261679442        3.0277058691        5.1751864595
  C        16.0941025995        1.7129818941        5.4533791451
  N        15.7786091664       13.8571820422       16.0113741978
  C        16.0494882283       12.5380003983       16.2779843402
  N        15.8363847206       19.7208777289       17.5720734435
  C        16.1015990671       21.0362253990       17.2937079277
  N        15.7555125967        8.8931784711        6.7395388436
  C        16.0281986114       10.2131350934        6.4780692834
  N         6.4984761441       19.7201559702        5.1901701163
  C         6.2291864923       21.0358411196        5.4645797320
  N         6.5579035948        8.8939122926       16.0097029978
  C         6.2901606220       10.2137366159       16.2771662191
  N         6.5032213585        3.0325267229       17.5752101000
  C         6.2377202852        1.7159563473       17.2998473721
  N         6.5515969791       13.8550378409        6.7318012710
  C         6.2791630178       12.5358451619        6.4676608336
  N         4.9641372659       16.0035300325        3.0336950764
  C         5.2321802843       16.2736801179        1.7157586785
  N         4.9809543347        5.1904578698       13.8517669780
  C         5.2537873013        5.4609631765       12.5350807034
  N        17.3718873368       15.9961283137       19.7169925548
  C        17.1041426800       16.2644648434       21.0353830784
  N        17.3279306873        5.2001171139        8.8994028712
  C        17.0555547001        5.4734493138       10.2160727579
  N         4.9593232049        6.7613760386       19.7148105983
  C         5.2237339842        6.4908094741       21.0338042418
  N         4.9868947884       17.5500632096        8.8999195111
  C         5.2645687140       17.2835656286       10.2161165364
  N        17.3579134578        6.7543744793        3.0346076693
  C        17.0946380202        6.4843474666        1.7158418337
  N        17.3518738413       17.5496261145       13.8552911479
  C        17.0778623565       17.2816990086       12.5379652387
  N         4.9528177693        3.0334848365        6.7554366585
  C         5.2208258739        1.7149178833        6.4875347813
  N         4.9934534730       13.8527801681       17.5558077985
  C         5.2671855239       12.5360287837       17.2866983287
  N        17.3660116022       19.7181482663        6.7525962749
  C        17.0982895137       21.0361893310        6.4832037548
  N        17.3489932314        8.9001750535       17.5604697191
  C        17.0765844018       10.2166310881       17.2871421015
  N         4.9724661130       19.7163447561       15.9995620988
  C         5.2359635691       21.0351190073       16.2713649683
  N         4.9771706213        8.8986950549        5.1943439480
  C         5.2524547437       10.2149816478        5.4632592167
  N        17.3643584390        3.0345744266       15.9941619983
  C        17.1006893795        1.7154920549       16.2632494359
  N        17.3335572240       13.8558457632        5.2094782063
  C        17.0587323245       12.5383299893        5.4780524140
  N         2.8307937366       15.9983570659       17.5531975762
  C         1.5133563568       16.2700712061       17.2859021835
  N        13.6460914421       16.0726535848        6.6739237972
  C        12.3259171458       16.3370189400        6.4106931658
  N        19.5043959047       15.9987994914        5.1998942972
  C        20.8224959596       16.2675880541        5.4688428869
  N         8.7011369234       16.0368856214       16.0368868197
  C        10.0140954483       16.3190740058       16.3190745639
  N        19.5063558152        6.7548282458       17.5545170135
  C        20.8235841606        6.4849382297       17.2833282244
  N         8.6852368734        6.7062506947        6.7062498577
  C         9.9976283610        6.4226170986        6.4226158244
  N         2.8117878394        6.7575893079        5.2011565464
  C         1.4941607316        6.4885183755        5.4724411181
  N        13.6460892534        6.6739254311       16.0726537846
  C        12.3259146439        6.4106945779       16.3370198070
  N        15.8323466294        5.1737899870       19.7215412543
  C        16.0971319056        5.4525183254       21.0368295235
  N        15.7764364525       16.0220399676        8.8935038063
  C        16.0484008353       16.2834264987       10.2134461879
  N        15.8303230772       17.5704312575        3.0274675033
  C        16.0986244276       17.2927268419        1.7126219205
  N        15.7613154811        6.7501608719       13.8583406008
  C        16.0315912215        6.4831501070       12.5389974667
  N         6.4913213824        5.1831654609        3.0296629695
  C         6.2259339271        5.4609784129        1.7137985691
  N         6.5635891992       16.0140235149       13.8556488604
  C         6.2923585229       16.2798050944       12.5365857243
  N         6.5120378482       17.5703056177       19.7213694640
  C         6.2417772946       17.2972505914       21.0373750520
  N         6.5483757498        6.7345769012        8.8929987236
  C         6.2781469190        6.4695962094       10.2128573235
  N        19.5063582475       17.5545160879        6.7548267136
  C        20.8235860018       17.2833274362        6.4849366005
  N         8.6790073304       17.5933986433       17.5933978302
  C        10.0010966366       17.3344316393       17.3344309720
  N         2.8117876648        5.2011564896        6.7575876091
  C         1.4941606588        5.4724413613        6.4885167996
  N        13.6337413475        5.1238448743       17.6310441433
  C        12.3166968251        5.3976028644       17.3555512972
  N         2.8307938942       17.5531970014       15.9983565404
  C         1.5133564721       17.2859018641       16.2700706428
  N        13.6337425143       17.6310429525        5.1238425124
  C        12.3166987421       17.3555498862        5.3976012321
  N        19.5043933180        5.1998959005       15.9988001710
  C        20.8224939432        5.4688443949       16.2675885188
  N         8.6603970112        5.1509036127        5.1509041203
  C         9.9830949953        5.4076253610        5.4076249852
  N         6.5120358564       19.7213703568       17.5703073229
  C         6.2417745878       21.0373759179       17.2972525531
  N         6.5483757243        8.8929973214        6.7345773102
  C         6.2781478991       10.2128559495        6.4695963149
  N         6.4913200350        3.0296622836        5.1831637799
  C         6.2259323698        1.7137978357        5.4609762576
  N         6.5635884234       13.8556477189       16.0140246917
  C         6.2923573174       12.5365846802       16.2798063978
  N        15.8303193647        3.0274678593       17.5704288653
  C        16.0986212672        1.7126218923       17.2927246156
  N        15.7613184927       13.8583429711        6.7501570914
  C        16.0315937155       12.5389999684        6.4831478448
  N        15.8323449505       19.7215409998        5.1737929665
  C        16.0971298808       21.0368286931        5.4525226196
  N        15.7764356300        8.8935062946       16.0220393647
  C        16.0484003439       10.2134490808       16.2834256874
  N        17.3660096806        6.7525966808       19.7181492810
  C        17.0982892380        6.4832021211       21.0361906756
  N        17.3489953508       17.5604687248        8.9001729139
  C        17.0765855330       17.2871417325       10.2166283855
  N         4.9528177403        6.7554368890        3.0334858758
  C         5.2208265011        6.4875358571        1.7149189276
  N         4.9934552033       17.5558076789       13.8527806151
  C         5.2671872315       17.2866976977       12.5360294219
  N        17.3643614728       15.9941635783        3.0345731841
  C        17.1006917464       16.2632514930        1.7154914707
  N        17.3335549375        5.2094822500       13.8558453559
  C        17.0587304423        5.4780546790       12.5383286786
  N         4.9724666215       15.9995618766       19.7163441949
  C         5.2359651552       16.2713639217       21.0351183296
  N         4.9771694430        5.1943446940        8.8986958997
  C         5.2524531167        5.4632599166       10.2149827001
  N        17.3718870374       19.7169934353       15.9961266846
  C        17.1041415654       21.0353837971       16.2644628986
  N        17.3279292252        8.8994038338        5.2001162535
  C        17.0555545571       10.2160739993        5.4734488700
  N         4.9641338734        3.0336957426       16.0035318188
  C         5.2321771899        1.7157595751       16.2736819356
  N         4.9809573262       13.8517659175        5.1904569477
  C         5.2537899277       12.5350794029        5.4609623892
  N        17.3579144700        3.0346069265        6.7543760810
  C        17.0946380969        1.7158409093        6.4843501423
  N        17.3518740609       13.8552935949       17.5496251221
  C        17.0778622857       12.5379678895       17.2816983470
  N         4.9593251876       19.7148090005        6.7613757283
  C         5.2237344812       21.0338030375        6.4908084180
  N         4.9868925169        8.8999190352       17.5500649620
  C         5.2645666245       10.2161157462       17.2835669924
  N        19.4951571936        6.7587674739        5.2026437799
  C        20.8129985792        6.4890258581        5.4729800846
  N         8.6934434605        6.7092438181       16.0355795179
  C        10.0062883831        6.4274418541       16.3194322580
  N         2.8210883625        6.7571247663       17.5481006410
  C         1.5035332417        6.4859882356       17.2804502577
  N        13.6366124467        6.6672590002        6.6672578992
  C        12.3165796796        6.4039095739        6.4039082067
  N         2.8198991301       15.9961952624        5.1976944719
  C         1.5026701793       16.2663075159        5.4682126827
  N        13.6537958941       16.0703265920       16.0703263454
  C        12.3336573722       16.3343927342       16.3343926408
  N        19.5161511656       16.0004714944       17.5553087624
  C        20.8337331397       16.2710550939       17.2869210156
  N         8.6934458182       16.0355779262        6.7092446593
  C        10.0062910212       16.3194306197        6.4274419680
  N         6.5032256432       17.5752073460        3.0325258661
  C         6.2377242888       17.2998449281        1.7159552341
  N         6.5515946901        6.7318014638       13.8550391593
  C         6.2791608050        6.4676609179       12.5358467109
  N         6.4984756250        5.1901718406       19.7201569513
  C         6.2291869330        5.4645818704       21.0358419650
  N         6.5579058223       16.0097011623        8.8939133038
  C         6.2901626327       16.2771645405       10.2137378135
  N        15.8363856475       17.5720755268       19.7208773601
  C        16.1016007028       17.2937101689       21.0362251163
  N        15.7555135935        6.7395392918        8.8931762004
  C        16.0281984052        6.4780694926       10.2131328095
  N        15.8261703537        5.1751814555        3.0277066151
  C        16.0941049436        5.4533740051        1.7129827285
  N        15.7786077836       16.0113761765       13.8571794442
  C        16.0494875135       16.2779857431       12.5379975979
 Zn        14.4791748995       14.7706984892       14.7706974794
 Cl        12.9681292782       13.7063480365       13.7063482168
 Zn        14.5417063773        3.8455574925        3.8455589472
 Cl        13.3839919002        2.5785903607        2.5785934493
 Zn         3.6812263054       14.7090121008        3.9004006920
 Cl         2.4436135250       13.4735718163        2.6758438037
 Zn         3.6812241779        3.9004012402       14.7090129009
 Cl         2.4436121763        2.6758449092       13.4735711938
 Zn         7.8511127161        8.0089392519       14.7292492397
 Cl         9.0783486957        9.2412753210       13.4914384683
 Zn         7.7875346836       18.8809714703        3.8850048997
 Cl         8.9975144852       20.1288401502        2.6448020592
 Zn        18.6338728826        8.0514587113        3.9070770798
 Cl        19.8625438502        9.2991182640        2.6869552636
 Zn        18.6567128564       18.8404362110       14.7076930588
 Cl        19.8820181652       20.0642303620       13.4591831517
 Zn         7.8511147747       14.7292470535        8.0089399771
 Cl         9.0783519269       13.4914373600        9.2412761401
 Zn         7.7875327021        3.8850051203       18.8809723658
 Cl         8.9975110698        2.6448001590       20.1288401590
 Zn        18.6567126451       14.7076940003       18.8404357648
 Cl        19.8820165022       13.4591834354       20.0642306152
 Zn        18.6338740930        3.9070777207        8.0514582026
 Cl        19.8625478496        2.6869582358        9.2991170151
 Zn        14.4503811800        7.9665264844        7.9665254386
 Cl        12.9234270349        9.0199818447        9.0199770899
 Zn        14.5486513939       18.8922365803       18.8922359774
 Cl        13.3861892173       20.1577241515       20.1577241137
 Zn         3.6808656460        8.0553202336       18.8352223090
 Cl         2.4411074771        9.2946347470       20.0540920564
 Zn         3.6808675952       18.8352207432        8.0553204247
 Cl         2.4411109534       20.0540921276        9.2946346830
 Zn        14.4663992627       14.7843151179        7.9884237228
 Cl        12.9489687895       13.8095694625        9.1261241454
 Zn        14.5450368726        3.8485758617       18.8937478339
 Cl        13.3828280824        2.5838047332       20.1594303362
 Zn         3.6896393668       14.7072655688       18.8418195246
 Cl         2.4532549637       13.4707344045       20.0672332687
 Zn         3.6745270135        3.9054709007        8.0516003459
 Cl         2.4343905452        2.6876915352        9.2910868984
 Zn         7.8467734794        8.0091542835        8.0091548027
 Cl         9.0747544588        9.2440832304        9.2440819362
 Zn         7.7964613983       18.8766698941       18.8766695124
 Cl         9.0122048156       20.1177210469       20.1177206499
 Zn        18.6531302574        8.0483193069       18.8486073636
 Cl        19.8824497416        9.2854265572       20.0785387656
 Zn        18.6531321055       18.8486044117        8.0483173490
 Cl        19.8824523681       20.0785346440        9.2854248715
 Zn        14.4663948000        7.9884282940       14.7843149406
 Cl        12.9489596634        9.1261346004       13.8095830429
 Zn        14.5450385551       18.8937473673        3.8485760925
 Cl        13.3828295687       20.1594304334        2.5838060738
 Zn         3.6745266399        8.0516016240        3.9054698366
 Cl         2.4343910416        9.2910893254        2.6876903215
 Zn         3.6896401883       18.8418188812       14.7072655330
 Cl         2.4532561485       20.0672313773       13.4707328589
 Zn         7.8580493853       14.7319908831       14.7319927764
 Cl         9.0847854838       13.4970669356       13.4970700990
 Zn         7.7771819952        3.8738373551        3.8738373497
 Cl         8.9838355926        2.6284434233        2.6284420990
 Zn        18.6426097156       14.7055799583        3.9124843813
 Cl        19.8674082116       13.4475100837        2.6983604958
 Zn        18.6426067213        3.9124865104       14.7055792595
 Cl        19.8674053298        2.6983623747       13.4475091224
 Zn         5.7485900953        5.9613443039       16.7813273704
 Zn        16.5801434279       16.8016132224       16.8016108790
 Zn        16.5613602500        5.9492084239        5.9492081831
 Zn         5.7485926597       16.7813258735        5.9613444380
 Zn         5.7397122927        5.9599992830        5.9599999907
 Zn        16.5685015805       16.8087342126        5.9526984436
 Zn         5.7681497379       16.7821151042       16.7821151210
 Zn        16.5684988761        5.9527004043       16.8087339141
  N         3.5667848651        5.9776228814       16.7714182497
  N        14.3768997425        5.8895352661        5.8895345297
  N        18.7690428388       16.7770481616       16.7770475759
  N         7.9350769753       16.8099754789        5.9401621785
  N        18.7484890459        5.9804149019        5.9804136172
  N         7.9350747784        5.9401610120       16.8099769719
  N         3.5667869723       16.7714168558        5.9776230004
  N        14.3941196476       16.8482121706       16.8482113255
  N        16.5906243299        3.7773834939        5.9619328486
  N        16.5662867162       14.6032008961       16.7821775983
  N        16.6045879408       18.9730354317       16.7873392564
  N        16.5419677825        8.1493934368        5.9649672106
  N         5.7306811286       18.9706417714        5.9742705727
  N         5.7691989317        8.1504144581       16.7797273299
  N         5.7334237751        3.7797018605       16.7907326362
  N         5.7661837100       14.5996077194        5.9594965089
  N         5.7334277660       16.7907303643        3.7797010691
  N         5.7661808864        5.9594970243       14.5996089914
  N        16.6045882874       16.7873408833       18.9730348266
  N        16.5419695208        5.9649678973        8.1493917055
  N         5.7306792132        5.9742711759       18.9706429700
  N         5.7692012645       16.7797254299        8.1504152884
  N        16.5906245934        5.9619298947        3.7773842835
  N        16.5662856499       16.7821792340       14.6031982123
  N         5.7217356314        3.7782060247        5.9664277935
  N         5.7777045273       14.6004366827       16.7856015970
  N        16.5996800488       18.9742879977        5.9601364013
  N        16.5628699384        8.1499887773       16.7955078411
  N         5.7445513899       18.9720100951       16.7855233280
  N         5.7610278066        8.1493556970        5.9632427688
  N        16.5959734108        3.7774424072       16.7852851185
  N        16.5491735582       14.6042110640        5.9777049524
  N         3.5776337127       16.7744123304       16.7744124448
  N        14.3860016316       16.8531286583        5.8981987255
  N        18.7583460718       16.7773261872        5.9776634283
  N         7.9440945383       16.8093736535       16.8093740298
  N        18.7583437809        5.9776650068       16.7773271113
  N         7.9260358204        5.9350265158        5.9350267010
  N         3.5578362710        5.9787949351        5.9787940601
  N        14.3859996595        5.8982009790       16.8531290611
  N        16.5996792323        5.9601360304       18.9742886334
  N        16.5628717335       16.7955073806        8.1499863246
  N        16.5959771421       16.7852868776        3.7774416461
  N        16.5491708305        5.9777095768       14.6042095301
  N         5.7217359797        5.9664283368        3.7782068159
  N         5.7777056127       16.7856011776       14.6004375382
  N         5.7445521263       16.7855226881       18.9720092539
  N         5.7610276642        5.9632428821        8.1493569367
  C        11.1796544027       15.7776369283       15.7776377851
  H        11.1972426878       15.0024370969       15.0024388969
  C        11.1362963364        4.8477915980        4.8477913707
  H        11.1198512371        4.0726773391        4.0726778626
  C         0.3421173409       15.7167760530        4.9175356361
  H         0.3422159928       14.9412973959        4.1419179803
  C         0.3421149794        4.9175372800       15.7167765708
  H         0.3422148438        4.1419198544       14.9412975792
  C        11.1725879414        6.9664376410       15.7777198467
  H        11.1913882767        7.7422106588       15.0032228874
  C        11.1463602472       17.8986038864        4.8582856766
  H        11.1314316988       18.6762168533        4.0855401518
  C         0.3336021843        7.0393673786        4.9227202827
  H         0.3343072855        7.8153692277        4.1476175229
  C         0.3535813830       17.8375530092       15.7201848780
  H         0.3542476279       18.6126909532       14.9441699054
  C        11.1725907606       15.7777184833        6.9664370875
  H        11.1913927533       15.0032212753        7.7422097597
  C        11.1463591778        4.8582868588       17.8986055652
  H        11.1314305307        4.0855415541       18.6762188389
  C         0.3535811997       15.7201862387       17.8375539011
  H         0.3542474767       14.9441723080       18.6126929429
  C         0.3336019112        4.9227197749        7.0393647338
  H         0.3343065469        4.1476158429        7.8153654632
  C        11.1641100706        6.9622205343        6.9622186906
  H        11.1843692186        7.7373467437        7.7373441973
  C        11.1557567727       17.8924792762       17.8924779108
  H        11.1426215068       18.6676876596       18.6676856380
  C         0.3440105181        7.0365557492       17.8320535595
  H         0.3453375361        7.8130268031       18.6067862027
  C         0.3440126693       17.8320529658        7.0365545354
  H         0.3453386034       18.6067854947        7.8130254941
  C        15.4911851521       11.3747217366       15.7397401254
  H        14.6978810330       11.3712489921       14.9835720298
  C        15.5522143871        0.5544016950        4.8939678156
  H        14.7893866852        0.5537132265        4.1053621829
  C         4.6976859848       11.3748655504        4.9170868942
  H         3.9152756643       11.3743936924        4.1484040402
  C         4.6889683251        0.5550629633       15.7164142944
  H         3.9207399366        0.5547352657       14.9337564172
  C        15.4741964644       11.3756850978        7.0225666943
  H        14.6857765925       11.3734355413        7.7833761911
  C        15.5560129615        0.5539695849       17.8513858889
  H        14.7922132134        0.5534133793       18.6390528057
  C         4.7109440401       11.3760168753       17.8308876899
  H         3.9286145552       11.3757000207       18.5997372103
  C         4.6777352413        0.5544211137        7.0458345912
  H         3.9099226729        0.5547454214        7.8288523447
  C         6.8466317938       11.3751802022       15.7334714019
  H         7.6282735845       11.3756592524       14.9641367127
  C         6.7732567064        0.5547549990        4.9069320958
  H         7.5412550270        0.5545954463        4.1236904094
  C        17.6129876392       11.3775365440        4.9320382103
  H        18.3961766760       11.3779661096        4.1635632685
  C        17.6456686130        0.5559749497       15.7052974192
  H        18.4116695495        0.5564303402       14.9205648790
  C         6.8334694111       11.3744828241        7.0142452945
  H         7.6150939371       11.3751630952        7.7836815710
  C         6.7853549642        0.5570113588       17.8544610386
  H         7.5537841329        0.5575485355       18.6372336694
  C        17.6334464013       11.3782488806       17.8282672093
  H        18.4161552442       11.3801678254       18.5970401803
  C        17.6391566134        0.5566129971        7.0429732852
  H        18.4044880580        0.5573650929        7.8283859079
  C        15.4911843944       15.7397415867       11.3747189514
  H        14.6978798249       14.9835742770       11.3712449800
  C        15.5522183985        4.8939615176        0.5544021062
  H        14.7893924542        4.1053539171        0.5537138519
  C         4.6889700952       15.7164136601        0.5550624193
  H         3.9207402272       14.9337569731        0.5547349033
  C         4.6976832260        4.9170879306       11.3748663745
  H         3.9152723593        4.1484058683       11.3743941614
  C         6.8466329612       15.7334696895       11.3751815283
  H         7.6282742614       14.9641343037       11.3756612044
  C         6.7732585788        4.9069348669        0.5547556310
  H         7.5412574901        4.1236938398        0.5545956394
  C        17.6456703573       15.7052989378        0.5559738213
  H        18.4116706678       14.9205661710        0.5564295642
  C        17.6129871627        4.9320402329       11.3775363889
  H        18.3961782592        4.1635669515       11.3779668627
  C        15.4741956979        7.0225677008       11.3756818446
  H        14.6857770423        7.7833788285       11.3734292868
  C        15.5560153558       17.8513886750        0.5539694746
  H        14.7922161063       18.6390555673        0.5534145345
  C         4.6777346421        7.0458353750        0.5544226068
  H         3.9099211339        7.8288519486        0.5547472104
  C         4.7109462190       17.8308867413       11.3760171783
  H         3.9286168561       18.5997366287       11.3757000089
  C         6.8334681984        7.0142451234       11.3744844444
  H         7.6150928044        7.7836810054       11.3751655749
  C         6.7853586769       17.8544582037        0.5570102826
  H         7.5537885446       18.6372304442        0.5575468090
  C        17.6391549049        7.0429721309        0.5566140304
  H        18.4044842564        7.8283872267        0.5573669636
  C        17.6334476449       17.8282670909       11.3782464863
  H        18.4161569226       18.5970392873       11.3801646085
 Xe        13.9491422768       11.3488403057       11.3488440309
