     409
 i =     150, E =    -5183.7561923568
  N         2.9030602098        5.2005967812       15.9991880057
  C         1.5844473431        5.4693285265       16.2673590116
  N        13.7235080564        5.1616937857        5.1616911276
  C        12.4031366961        5.4256626558        5.4256726489
  N        19.5860134017       17.5522340155       15.9967770253
  C        20.9039408250       17.2855512471       16.2695654226
  N         8.7677432255       17.6095578113        5.1590098298
  C        10.0859128708       17.3359932734        5.4257608779
  N        19.5829698783        5.1976614709        6.7540025207
  C        20.9006526598        5.4713133573        6.4873606823
  N         8.7677281227        5.1590159029       17.6095406497
  C        10.0858992239        5.4257653701       17.3359833015
  N         2.8997802995       17.5514902710        6.7596913861
  C         1.5824601533       17.2813542836        6.4874433240
  N        13.7323110993       17.5834334275       17.5834301733
  C        12.4117404061       17.3210335871       17.3210313597
  N        15.8946521872        3.0288589321        5.1838390132
  C        16.1616779272        1.7123069256        5.4595073100
  N        15.8497823194       13.8527832241       16.0082304162
  C        16.1189815254       12.5340442863       16.2756573541
  N        15.8935919662       19.7170653585       17.5659110072
  C        16.1612811304       21.0336239360       17.2919569570
  N        15.8507765766        8.8921620512        6.7337186960
  C        16.1206317564       10.2112058831        6.4664413159
  N         6.5801652698       19.7256655150        5.1908115791
  C         6.3091686154       21.0413970911        5.4648241025
  N         6.6373356994        8.9018389691       16.0135122247
  C         6.3646530281       10.2207080239       16.2762162805
  N         6.5894154038        3.0373446125       17.5779131320
  C         6.3210687539        1.7208710181       17.3038215430
  N         6.6430819486       13.8617565314        6.7561431697
  C         6.3688489319       12.5433731194        6.4919282512
  N         5.0515439413       16.0047639104        3.0396641002
  C         5.3166362233       16.2764248547        1.7212956243
  N         5.0743497889        5.2126237064       13.8605176739
  C         5.3440145365        5.4846870926       12.5432811552
  N        17.4354821082       15.9971415282       19.7141887249
  C        17.1684674388       16.2673631510       21.0327540338
  N        17.4185206762        5.1901881217        8.8955404714
  C        17.1444562167        5.4583257608       10.2122311555
  N         5.0400380627        6.7625994324       19.7200323788
  C         5.3040059898        6.4916765324       21.0392213738
  N         5.0644745146       17.5515526189        8.9062791039
  C         5.3372169404       17.2806303769       10.2230424676
  N        17.4376778947        6.7520026644        3.0319381851
  C        17.1692880081        6.4837514312        1.7135230858
  N        17.4185748594       17.5511709524       13.8495601941
  C        17.1433196396       17.2833417459       12.5327541784
  N         5.0381755712        3.0397208813        6.7623030660
  C         5.3029848892        1.7208577770        6.4913517495
  N         5.0702540993       13.8606022060       17.5506595577
  C         5.3400637514       12.5432563261       17.2800402969
  N        17.4371668593       19.7135181891        6.7561237914
  C        17.1696474677       21.0321976877        6.4863534839
  N        17.4167765781        8.8962328216       17.5482888248
  C        17.1418447548       10.2129186547       17.2813380077
  N         5.0532234061       19.7215607009       16.0050890392
  C         5.3174202166       21.0403540365       16.2763434511
  N         5.0694453064        8.9060416817        5.2116960542
  C         5.3414869941       10.2227383556        5.4841138660
  N        17.4358902330        3.0320073158       16.0003567736
  C        17.1681121403        1.7137617928       16.2695490605
  N        17.4207980072       13.8491147418        5.1885537917
  C        17.1461757399       12.5322522913        5.4569696927
  N         2.9033628969       16.0047776212       17.5602989053
  C         1.5853114939       16.2735152985       17.2895892400
  N        13.7154087714       16.0251166528        6.7161922863
  C        12.4008615771       16.3046026017        6.4427673463
  N        19.5855325329       15.9963682085        5.1945784108
  C        20.9030233388       16.2661088481        5.4665471936
  N         8.7674125284       16.0491356927       16.0491416461
  C        10.0850805677       16.3163628202       16.3163657000
  N        19.5832708000        6.7540023387       17.5486821098
  C        20.9013668630        6.4846729022       17.2800048353
  N         8.7627448519        6.7057598372        6.7057706706
  C        10.0794374627        6.4353702643        6.4353854518
  N         2.8998232530        6.7646341526        5.2086456964
  C         1.5819189652        6.4926623688        5.4765679361
  N        13.7154029589        6.7161924793       16.0251231422
  C        12.4008544315        6.4427678029       16.3046042554
  N        15.8948136846        5.1877892089       19.7167740322
  C        16.1622404043        5.4619722599       21.0332424868
  N        15.8486184835       16.0052266447        8.8928581432
  C        16.1176970435       16.2735637237       10.2118817179
  N        15.8934644703       17.5691409592        3.0296924062
  C        16.1607735292       17.2940835307        1.7129793126
  N        15.8525391945        6.7320324119       13.8520558227
  C        16.1222016276        6.4650388843       12.5333198705
  N         6.5750506948        5.1880982794        3.0356133131
  C         6.3069188154        5.4634673031        1.7196317575
  N         6.6415048927       16.0105215189       13.8612203696
  C         6.3667464569       16.2747683673       12.5430665452
  N         6.5930533154       17.5767846340       19.7259752730
  C         6.3225989209       17.3031369941       21.0420835210
  N         6.6397980434        6.7529654956        8.9012774861
  C         6.3671875104        6.4903688663       10.2202896839
  N        19.5832818089       17.5486834264        6.7540086947
  C        20.9013769975       17.2799991162        6.4846831500
  N         8.7725101261       17.6038299352       17.6038328270
  C        10.0900475305       17.3321528717       17.3321537419
  N         2.8998245632        5.2086541218        6.7646262703
  C         1.5819195072        5.4765740578        6.4926568816
  N        13.7282307821        5.1642227651       17.5842129123
  C        12.4078668552        5.4291823266       17.3225651609
  N         2.9033617194       17.5602999048       16.0047777564
  C         1.5853104858       17.2895889665       16.2735165314
  N        13.7282429611       17.5842069740        5.1642241371
  C        12.4078789069       17.3225643467        5.4291827007
  N        19.5855250512        5.1945724869       15.9963665090
  C        20.9030159468        5.4665367701       16.2661139298
  N         8.7613643724        5.1506695971        5.1506697269
  C        10.0803449767        5.4194518433        5.4194616856
  N         6.5930507275       19.7259798219       17.5767830195
  C         6.3226020793       21.0420882393       17.3031262456
  N         6.6398131891        8.9012828975        6.7529423021
  C         6.3671150465       10.2202939814        6.4904346711
  N         6.5750451758        3.0356368030        5.1880977360
  C         6.3069198064        1.7196545290        5.4634674309
  N         6.6415103452       13.8612220144       16.0105271075
  C         6.3667769383       12.5430680044       16.2748016124
  N        15.8934581393        3.0296942800       17.5691370899
  C        16.1607693525        1.7129812195       17.2940816990
  N        15.8525439096       13.8520515517        6.7320307340
  C        16.1222037568       12.5333153683        6.4650348981
  N        15.8948225297       19.7167693214        5.1877974313
  C        16.1622451233       21.0332384751        5.4619791544
  N        15.8486095340        8.8928591359       16.0052275102
  C        16.1176897282       10.2118824924       16.2735645130
  N        17.4371580390        6.7561162608       19.7135172523
  C        17.1696424849        6.4863472120       21.0321976095
  N        17.4167856375       17.5482873654        8.8962338692
  C        17.1418523526       17.2813368762       10.2129192200
  N         5.0381740539        6.7622970326        3.0397022045
  C         5.3029805163        6.4913483726        1.7208382025
  N         5.0702488028       17.5506524701       13.8606000539
  C         5.3400336591       17.2800059665       12.5432555193
  N        17.4358931338       16.0003578896        3.0320059493
  C        17.1681147347       16.2695490638        1.7137600885
  N        17.4207941385        5.1885558942       13.8491182501
  C        17.1461737271        5.4569743617       12.5322558263
  N         5.0532272226       16.0050886522       19.7215599362
  C         5.3174174172       16.2763536216       21.0403515105
  N         5.0694321576        5.2117191364        8.9060353481
  C         5.3415585184        5.4840475821       10.2227344570
  N        17.4354809994       19.7141900266       15.9971428997
  C        17.1684671133       21.0327558073       16.2673636715
  N        17.4185249691        8.8955384385        5.1901811547
  C        17.1444582251       10.2122281482        5.4583186934
  N         5.0515480282        3.0396695785       16.0047442565
  C         5.3166387111        1.7213011404       16.2764085130
  N         5.0743570198       13.8605226544        5.2126016524
  C         5.3439485818       12.5432842811        5.4847418628
  N        17.4376739859        3.0319406348        6.7519999945
  C        17.1692865461        1.7135239822        6.4837528329
  N        17.4185723147       13.8495601763       17.5511705375
  C        17.1433164230       12.5327539386       17.2833426627
  N         5.0400434426       19.7200476566        6.7625874540
  C         5.3040164223       21.0392387997        6.4916739832
  N         5.0644712694        8.9062838590       17.5515508095
  C         5.3372341892       10.2230451679       17.2806510260
  N        19.5829704292        6.7540084693        5.1976549435
  C        20.9006528810        6.4873658423        5.4713075761
  N         8.7657224687        6.7107068331       16.0520850809
  C        10.0829443180        6.4396862170       16.3183045882
  N         2.8997651345        6.7596909386       17.5514963565
  C         1.5824477019        6.4874381304       17.2813611687
  N        13.7128631213        6.7168501812        6.7168469079
  C        12.3977720044        6.4413948619        6.4414052535
  N         2.9030701215       15.9991779449        5.2005975196
  C         1.5844566851       16.2673509497        5.4693342773
  N        13.7168341607       16.0274902456       16.0274880790
  C        12.4028537628       16.3052383671       16.3052371122
  N        19.5860150688       15.9967712135       17.5522394420
  C        20.9039418951       16.2695610618       17.2855549553
  N         8.7657278812       16.0521015331        6.7107002421
  C        10.0829518847       16.3183140845        6.4396810692
  N         6.5894184674       17.5779273570        3.0373372445
  C         6.3210688499       17.3038348799        1.7208644157
  N         6.6430827376        6.7561565949       13.8617492016
  C         6.3689184993        6.4918687642       12.5433685887
  N         6.5801580031        5.1908248678       19.7256444780
  C         6.3091583675        5.4648272182       21.0413761766
  N         6.6373360641       16.0135102565        8.9018326398
  C         6.3646351461       16.2761940556       10.2207046522
  N        15.8935928425       17.5659093794       19.7170628030
  C        16.1612818211       17.2919566326       21.0336217579
  N        15.8507711539        6.7337248775        8.8921665802
  C        16.1206289731        6.4664481356       10.2112102210
  N        15.8946580764        5.1838400483        3.0288631402
  C        16.1616807545        5.4595050909        1.7123104733
  N        15.8497842310       16.0082313955       13.8527829590
  C        16.1189842151       16.2756568365       12.5340435771
 Zn        14.5546606310       14.7243888176       14.7243866241
 Cl        13.3146072073       13.4963989826       13.4963723102
 Zn        14.6071202457        3.8815854351        3.8815819337
 Cl        13.3949785765        2.6384559884        2.6384378114
 Zn         3.7763033907       14.7098237531        3.9123486379
 Cl         2.5499389633       13.4566286814        2.6942447367
 Zn         3.7763018760        3.9123774913       14.7098236463
 Cl         2.5499535704        2.6942603883       13.4566274680
 Zn         7.9441703493        8.0163888208       14.7552455333
 Cl         9.3218845879        9.1953462021       13.6254185065
 Zn         7.8756589516       18.8880169148        3.8843659405
 Cl         9.0575520890       20.1462717848        2.6290609120
 Zn        18.7206494659        8.0466456398        3.9017390242
 Cl        19.9559243591        9.2851977505        2.6785078431
 Zn        18.7190321760       18.8389798430       14.7060524574
 Cl        19.9511264363       20.0648908550       13.4655007134
 Zn         7.9441761289       14.7552520735        8.0163738952
 Cl         9.3218732960       13.6254075991        9.1953360047
 Zn         7.8756414046        3.8843764741       18.8880050886
 Cl         9.0575399853        2.6290837974       20.1462668509
 Zn        18.7190313348       14.7060464663       18.8389820880
 Cl        19.9511052277       13.4654637703       20.0648822884
 Zn        18.7206445049        3.9017480044        8.0466384736
 Cl        19.9559285062        2.6785282520        9.2851917797
 Zn        14.5560331750        8.0144875572        8.0144829423
 Cl        13.3194239461        9.2451336343        9.2450967791
 Zn        14.6072328797       18.8706752112       18.8706758692
 Cl        13.3882221126       20.1096979629       20.1097182953
 Zn         3.7604354607        8.0563533203       18.8386134642
 Cl         2.5286408450        9.2987459620       20.0622190261
 Zn         3.7604463884       18.8386244060        8.0563485098
 Cl         2.5286238673       20.0622191388        9.2987274988
 Zn        14.5557144353       14.7216360701        8.0132740104
 Cl        13.3172300708       13.4914098637        9.2415409548
 Zn        14.6070472211        3.8853182934       18.8729772323
 Cl        13.3906343463        2.6447304387       20.1137382962
 Zn         3.7736812071       14.7125994284       18.8446727761
 Cl         2.5454819292       13.4667459837       20.0692645517
 Zn         3.7651038009        3.9188415034        8.0589911011
 Cl         2.5345899375        2.7017434712        9.3087913146
 Zn         7.9446846500        8.0100259691        8.0100207017
 Cl         9.3312076898        9.1592808785        9.1593107126
 Zn         7.8864712144       18.8835158091       18.8835118148
 Cl         9.0730243901       20.1377488234       20.1377365454
 Zn        18.7189807670        8.0500110883       18.8359412315
 Cl        19.9524485478        9.2897710122       20.0605185280
 Zn        18.7189888933       18.8359422725        8.0500170992
 Cl        19.9524537739       20.0605181017        9.2897815925
 Zn        14.5557064394        8.0132740518       14.7216378828
 Cl        13.3172122413        9.2415340724       13.4914128069
 Zn        14.6070560665       18.8729755598        3.8853252720
 Cl        13.3906440910       20.1137539953        2.6447554147
 Zn         3.7651145657        8.0589892543        3.9188213678
 Cl         2.5345855390        9.3087867422        2.7017374037
 Zn         3.7736819270       18.8446728902       14.7125986308
 Cl         2.5454863888       20.0692639307       13.4667402906
 Zn         7.9443523650       14.7479755762       14.7479693983
 Cl         9.3147663621       13.5893691415       13.5893690757
 Zn         7.8601000110        3.8754256172        3.8754187136
 Cl         9.0394562563        2.6170653583        2.6170842730
 Zn        18.7206824029       14.7082097762        3.8997560340
 Cl        19.9547576810       13.4694782637        2.6747616165
 Zn        18.7206794799        3.8997532112       14.7082051094
 Cl        19.9547450058        2.6747680543       13.4694545197
 Zn         5.8377575197        5.9637534486       16.7978343517
 Zn        16.6540539928       16.7793538275       16.7793539859
 Zn        16.6552283311        5.9587941797        5.9587908397
 Zn         5.8377712238       16.7978608763        5.9637297810
 Zn         5.8343536950        5.9625228112        5.9624945115
 Zn        16.6547998971       16.7790472815        5.9593530151
 Zn         5.8412574520       16.7970061040       16.7970130069
 Zn        16.6547920342        5.9593512359       16.7790482257
  N         3.6480407553        5.9811754038       16.7758632518
  N        14.4650082347        5.9422608874        5.9422502871
  N        18.8394970507       16.7727700879       16.7727761662
  N         8.0200863949       16.8317578957        5.9369954282
  N        18.8367699845        5.9739547887        5.9739479403
  N         8.0200752028        5.9370028579       16.8317382957
  N         3.6480528993       16.7758578081        5.9811702675
  N        14.4710307352       16.8014638979       16.8014608542
  N        16.6664674707        3.7768780730        5.9657465929
  N        16.6359979132       14.5974669155       16.7796636027
  N        16.6641144726       18.9688472094       16.7828299335
  N        16.6361816063        8.1472683752        5.9615460354
  N         5.8122525717       18.9767658319        5.9754301274
  N         5.8506354094        8.1571839454       16.7852912316
  N         5.8213937382        3.7848390739       16.7922337701
  N         5.8594658440       14.6078336733        5.9815254996
  N         5.8213958848       16.7922479775        3.7848313699
  N         5.8594028845        5.9816048806       14.6078288491
  N        16.6641154404       16.7828280572       18.9688453272
  N        16.6361754758        5.9615519815        8.1472714799
  N         5.8122474251        5.9754463527       18.9767466110
  N         5.8506603336       16.7853141578        8.1571785697
  N        16.6664737557        5.9657504377        3.7768788491
  N        16.6359992147       16.7796645297       14.5974667569
  N         5.8077754439        3.7840029809        5.9735917722
  N         5.8568505489       14.6076732143       16.7830318579
  N        16.6656837524       18.9683634828        5.9702917375
  N        16.6348207813        8.1479505123       16.7765780118
  N         5.8249115063       18.9775470549       16.7918817599
  N         5.8543366054        8.1567555313        5.9790698427
  N        16.6647678712        3.7773217848       16.7862373696
  N        16.6380258734       14.5968854059        5.9599942494
  N         3.6500364218       16.7828373168       16.7828360167
  N        14.4684642367       16.8000518162        5.9424594022
  N        18.8380543538       16.7721828559        5.9736368799
  N         8.0233003375       16.8266197261       16.8266252659
  N        18.8380456555        5.9736333162       16.7721770723
  N         8.0156462881        5.9296218919        5.9296232059
  N         3.6463525846        5.9876370789        5.9876278772
  N        14.4684549344        5.9424585326       16.8000605089
  N        16.6656730874        5.9702833302       18.9683653087
  N        16.6348307375       16.7765768050        8.1479506498
  N        16.6647731623       16.7862406704        3.7773201831
  N        16.6380204146        5.9599943321       14.5968892749
  N         5.8077795391        5.9735890803        3.7839809881
  N         5.8568637554       16.7830443378       14.6076725642
  N         5.8249183463       16.7918766032       18.9775445262
  N         5.8542664664        5.9791501078        8.1567490257
  C        11.2391962663       15.7603643202       15.7603649816
  H        11.2274507516       14.9847987168       14.9847972287
  C        11.2446001995        4.8720209079        4.8720308694
  H        11.2506503053        4.0966377215        4.0966404383
  C         0.4246866644       15.7173066112        4.9167984295
  H         0.4256330982       14.9424371595        4.1406253761
  C         0.4246796271        4.9167885390       15.7173134655
  H         0.4256337106        4.1406185020       14.9424406957
  C        11.2384235982        6.9905670773       15.7600010907
  H        11.2286278086        7.7655818347       14.9838497522
  C        11.2507242063       17.8810122297        4.8778695291
  H        11.2581010386       18.6580405553        4.1040917217
  C         0.4212530240        7.0406293642        4.9240023387
  H         0.4207681573        7.8167891740        4.1490602568
  C         0.4245834878       17.8380559169       15.7213931938
  H         0.4240665505       18.6130284198       14.9452708397
  C        11.2384270314       15.7600039606        6.9905640916
  H        11.2286262352       14.9838506168        7.7655771052
  C        11.2507080265        4.8778714857       17.8810069267
  H        11.2580789169        4.1040933382       18.6580349328
  C         0.4245860338       15.7213896807       17.8380571358
  H         0.4240725204       14.9452656426       18.6130278475
  C         0.4212529077        4.9240084832        7.0406250056
  H         0.4207636750        4.1490670314        7.8167860252
  C        11.2363133435        6.9886050886        6.9886198258
  H        11.2282638435        7.7641992316        7.7642054626
  C        11.2559608705       17.8772747121       17.8772723596
  H        11.2652809655       18.6526891592       18.6526847888
  C         0.4209136809        7.0374957642       17.8299297432
  H         0.4190311167        7.8148026394       18.6037745419
  C         0.4209268373       17.8299218564        7.0375043216
  H         0.4190408551       18.6037688569        7.8148092834
  C        15.5631465362       11.3736620532       15.7291807150
  H        14.7817025748       11.3751064061       14.9596338181
  C        15.6153561465        0.5521134461        4.9060610376
  H        14.8461199489        0.5510038301        4.1240554771
  C         4.7870318812       11.3837462397        4.9396961935
  H         4.0051875101       11.3851246337        4.1701504175
  C         4.7722389746        0.5606444575       15.7198707170
  H         4.0050891566        0.5603115648       14.9361020544
  C        15.5666094272       11.3728655914        7.0116487087
  H        14.7854219490       11.3741300325        7.7815318802
  C        15.6146365968        0.5527299642       17.8478066095
  H        14.8452631752        0.5517254267       18.6296058290
  C         4.7821273229       11.3839436428       17.8246091993
  H         3.9997659858       11.3853990837       18.5936109837
  C         4.7589364236        0.5598761211        7.0480214133
  H         3.9917332950        0.5595982052        7.8316506721
  C         6.9220724505       11.3810484097       15.7318416042
  H         7.7104982178       11.3791202260       14.9701128523
  C         6.8521248727        0.5607247956        4.9068745919
  H         7.6178041887        0.5611211049        4.1212504095
  C        17.6995986134       11.3715798028        4.9112573125
  H        18.4808741199       11.3703386918        4.1414279852
  C        17.7137147921        0.5537721941       15.7128350406
  H        18.4827350305        0.5548505621       14.9309004474
  C         6.9229034980       11.3810765658        7.0359648567
  H         7.7089238646       11.3792986902        7.8000229712
  C         6.8659588074        0.5616924962       17.8605935804
  H         7.6318650153        0.5621390750       18.6459012263
  C        17.6969491707       11.3720904410       17.8288020655
  H        18.4785685061       11.3707419956       18.5983614136
  C        17.7148158820        0.5534760538        7.0406176678
  H        18.4839318284        0.5547286489        7.8223953918
  C        15.5631512689       15.7291800672       11.3736600498
  H        14.7817067718       14.9596335069       11.3750990776
  C        15.6153553842        4.9060558920        0.5521201416
  H        14.8461186952        4.1240507199        0.5510176176
  C         4.7722334673       15.7198850458        0.5606421293
  H         4.0050844955       14.9361151746        0.5603099278
  C         4.7871237653        4.9396117106       11.3837435191
  H         4.0052515519        4.1700941397       11.3851337407
  C         6.9220381695       15.7318040652       11.3810459112
  H         7.7104675755       14.9700787954       11.3791232823
  C         6.8521204160        4.9068760674        0.5607005549
  H         7.6178033355        4.1212554478        0.5610927614
  C        17.7137156592       15.7128343987        0.5537698277
  H        18.4827359067       14.9308998865        0.5548454058
  C        17.6995975080        4.9112640822       11.3715826500
  H        18.4808736989        4.1414352667       11.3703420866
  C        15.5666076631        7.0116544592       11.3728711949
  H        14.7854207310        7.7815379728       11.3741407404
  C        15.6146396441       17.8478079796        0.5527282399
  H        14.8452675618       18.6296085335        0.5517247455
  C         4.7589276087        7.0480207942        0.5598606282
  H         3.9917281793        7.8316536777        0.5595842526
  C         4.7820941828       17.8245706472       11.3839415751
  H         3.9997362129       18.5935757413       11.3854063510
  C         6.9230002417        7.0358757476       11.3810704906
  H         7.7089974469        7.7999572472       11.3792925479
  C         6.8659565181       17.8606074924        0.5616860991
  H         7.6318641109       18.6459138556        0.5621346171
  C        17.7148136247        7.0406145788        0.5534731964
  H        18.4839272837        7.8223945388        0.5547257845
  C        17.6969550030       17.8288004988       11.3720920865
  H        18.4785753560       18.5983586545       11.3707466481
 Xe         7.1800615776       11.3648762503       11.3648878568
