     409
 i =     150, E =    -5183.7537882204
  N         2.8261055934        5.1973554084       15.9977721688
  C         1.5090754219        5.4680259599       16.2679957048
  N        13.6390914338        5.1398115654        5.1398114372
  C        12.3212132309        5.4122063569        5.4122056122
  N        19.5233795033       17.5582452402       16.0028796396
  C        20.8407536253       17.2889146334       16.2729713868
  N         8.6830383516       17.5886156439        5.1669719534
  C        10.0042025277       17.3256100755        5.4288321739
  N        19.5042881470        5.1997120927        6.7555179985
  C        20.8216924782        5.4713078460        6.4872270362
  N         8.6830370790        5.1669690926       17.5886178830
  C        10.0042012386        5.4288313451       17.3256127417
  N         2.8275846128       17.5493458906        6.7568267593
  C         1.5100570375       17.2819274443        6.4859788633
  N        13.6529975429       17.6053018401       17.6053017643
  C        12.3352522324       17.3332110103       17.3332108131
  N        15.8269841470        3.0303574083        5.1799760903
  C        16.0950168310        1.7147050197        5.4555412096
  N        15.7926415075       13.8578612965       16.0183334116
  C        16.0617600765       12.5383626615       16.2856089873
  N        15.8359750519       19.7195351085       17.5697159197
  C        16.1015096310       21.0357304158       17.2934287366
  N        15.7766631592        8.8953278000        6.7319904603
  C        16.0474344739       10.2155511892        6.4693145214
  N         6.5079093953       19.7199090309        5.1928276689
  C         6.2375122602       21.0361431397        5.4654261149
  N         6.5585635611        8.8944339403       16.0082558431
  C         6.2917097590       10.2139854534       16.2765158401
  N         6.5127719034        3.0340135803       17.5734441790
  C         6.2468203986        1.7168196335       17.2999094277
  N         6.5521067913       13.8546379899        6.7321814859
  C         6.2798903467       12.5358086049        6.4676661635
  N         4.9698375701       16.0052378156        3.0335436486
  C         5.2390563402       16.2758318692        1.7158424975
  N         4.9838937862        5.1887479347       13.8520990606
  C         5.2558233752        5.4596656128       12.5352826102
  N        17.3759190990       15.9987625696       19.7173608606
  C        17.1068763637       16.2670504624       21.0353957537
  N        17.3468303047        5.1913487367        8.9011436050
  C        17.0736319628        5.4635526532       10.2176854937
  N         4.9656840800        6.7612593621       19.7153745792
  C         5.2303110570        6.4900076936       21.0342674938
  N         4.9905625841       17.5513920008        8.9000675864
  C         5.2677553522       17.2845611545       10.2163034555
  N        17.3647028266        6.7535452673        3.0349426802
  C        17.0989609808        6.4832878929        1.7166799868
  N        17.3643736858       17.5576750381       13.8548297784
  C        17.0889068510       17.2905811021       12.5379873494
  N         4.9589833352        3.0339706207        6.7553827447
  C         5.2273946429        1.7156660358        6.4865785294
  N         4.9981211065       13.8529984163       17.5573721208
  C         5.2708144171       12.5360889848       17.2878866225
  N        17.3703119082       19.7192578076        6.7508391977
  C        17.1013916993       21.0369947751        6.4817365118
  N        17.3609674239        8.9010987909       17.5678393943
  C        17.0874623544       10.2173879599       17.2956969277
  N         4.9808737011       19.7162170788       16.0018116655
  C         5.2442536406       21.0349612427       16.2739006790
  N         4.9798696222        8.8989785488        5.1932255012
  C         5.2543857657       10.2153465481        5.4623441390
  N        17.3702057366        3.0338326070       15.9974761681
  C        17.1040662660        1.7153731246       16.2663321238
  N        17.3523996098       13.8558205902        5.1986848115
  C        17.0763226957       12.5390224879        5.4672151302
  N         2.8377368590       15.9998344916       17.5546710501
  C         1.5202792339       16.2713362831       17.2871836641
  N        13.6522542095       16.0538599748        6.6989519552
  C        12.3335188425       16.3202678534        6.4319335395
  N        19.5121932276       16.0035950740        5.1969124063
  C        20.8296902004       16.2711265294        5.4677259743
  N         8.7061837512       16.0287073552       16.0287087681
  C        10.0209473621       16.3059738967       16.3059748148
  N        19.5135848383        6.7531360018       17.5588945595
  C        20.8305917929        6.4843000173       17.2864490694
  N         8.6916634631        6.7172062181        6.7172073374
  C        10.0066166809        6.4399027683        6.4399035540
  N         2.8189582516        6.7568627405        5.2006066870
  C         1.5016506865        6.4879056405        5.4718458778
  N        13.6522501304        6.6989579724       16.0538588243
  C        12.3335152955        6.4319393141       16.3202694512
  N        15.8320640748        5.1774010097       19.7212742890
  C        16.0972823291        5.4540820040       21.0373849819
  N        15.7903263328       16.0282811172        8.8944796416
  C        16.0606479510       16.2905883869       10.2146628173
  N        15.8307087384       17.5686037766        3.0290532899
  C        16.0988753381       17.2927906211        1.7133128941
  N        15.7816444883        6.7398097115       13.8602527060
  C        16.0500057188        6.4731283983       12.5403114155
  N         6.5009811885        5.1862446993        3.0316484065
  C         6.2344320969        5.4618047868        1.7150634996
  N         6.5651318401       16.0128571088       13.8549384915
  C         6.2943220250       16.2793476890       12.5362429879
  N         6.5242882016       17.5691792251       19.7210710620
  C         6.2522795289       17.2976967023       21.0374335638
  N         6.5482476504        6.7360515678        8.8940560524
  C         6.2785935834        6.4701483953       10.2135172418
  N        19.5135883757       17.5588926376        6.7531341961
  C        20.8305956261       17.2864489256        6.4842982707
  N         8.6917688885       17.5852755169       17.5852758195
  C        10.0123891259       17.3220288133       17.3220290612
  N         2.8189572398        5.2006033211        6.7568635288
  C         1.5016499647        5.4718443352        6.4879057164
  N        13.6456724112        5.1446861104       17.6099397053
  C        12.3278217537        5.4169234437       17.3373311250
  N         2.8377374914       17.5546709234       15.9998344290
  C         1.5202798595       17.2871835538       16.2713362208
  N        13.6456723026       17.6099407119        5.1446791055
  C        12.3278225768       17.3373295372        5.4169176874
  N        19.5121896873        5.1969154932       16.0035942642
  C        20.8296865506        5.4677287181       16.2711256661
  N         8.6762982477        5.1620452736        5.1620473536
  C         9.9975397001        5.4241007007        5.4241022018
  N         6.5242862380       19.7210728004       17.5691795099
  C         6.2522775151       21.0374355144       17.2976980395
  N         6.5482485330        8.8940556585        6.7360550697
  C         6.2785945532       10.2135167281        6.4701510324
  N         6.5009811887        3.0316459752        5.1862414156
  C         6.2344320243        1.7150611491        5.4618017603
  N         6.5651308717       13.8549408589       16.0128604137
  C         6.2943209052       12.5362453865       16.2793507277
  N        15.8307049412        3.0290525606       17.5686024816
  C        16.0988718500        1.7133117978       17.2927902778
  N        15.7816449213       13.8602532016        6.7398058817
  C        16.0500069876       12.5403114620        6.4731267819
  N        15.8320636128       19.7212727013        5.1774017112
  C        16.0972821129       21.0373824764        5.4540854084
  N        15.7903290331        8.8944771831       16.0282807962
  C        16.0606484321       10.2146604024       16.2905898332
  N        17.3703094259        6.7508383723       19.7192618227
  C        17.1013903039        6.4817343726       21.0369985354
  N        17.3609666554       17.5678367589        8.9011017943
  C        17.0874630664       17.2956943717       10.2173911609
  N         4.9589814224        6.7553840126        3.0339724804
  C         5.2273935228        6.4865802408        1.7156680600
  N         4.9981229864       17.5573700112       13.8529966712
  C         5.2708159882       17.2878843693       12.5360871119
  N        17.3702082818       15.9974766499        3.0338351503
  C        17.1040688145       16.2663319756        1.7153756533
  N        17.3523999304        5.1986875607       13.8558210159
  C        17.0763216885        5.4672171075       12.5390236536
  N         4.9808743022       16.0018128055       19.7162146829
  C         5.2442548404       16.2739004472       21.0349588987
  N         4.9798675019        5.1932230705        8.8989796225
  C         5.2543838197        5.4623423821       10.2153475705
  N        17.3759176322       19.7173590694       15.9987637528
  C        17.1068728141       21.0353936876       16.2670504454
  N        17.3468241293        8.9011412429        5.1913470113
  C        17.0736302709       10.2176834970        5.4635536979
  N         4.9698368566        3.0335458785       16.0052384125
  C         5.2390553569        1.7158448450       16.2758326022
  N         4.9838945761       13.8520979209        5.1887482640
  C         5.2558246017       12.5352814702        5.4596665291
  N        17.3647039078        3.0349390608        6.7535478370
  C        17.0989623043        1.7166762725        6.4832905589
  N        17.3643772622       13.8548274187       17.5576732185
  C        17.0889070596       12.5379848880       17.2905829194
  N         4.9656860199       19.7153727117        6.7612604448
  C         5.2303118643       21.0342655637        6.4900075009
  N         4.9905619782        8.9000690068       17.5513922311
  C         5.2677543455       10.2163051413       17.2845620037
  N        19.5042889661        6.7555216535        5.1997115217
  C        20.8216929987        6.4872288480        5.4713076891
  N         8.6983628800        6.7179018644       16.0280245880
  C        10.0132918883        6.4421333107       16.3070619771
  N         2.8275814180        6.7568266821       17.5493455072
  C         1.5100536758        6.4859787820       17.2819271766
  N        13.6453986052        6.6956175974        6.6956183409
  C        12.3267749277        6.4283995307        6.4283987865
  N         2.8261092379       15.9977724326        5.1973558201
  C         1.5090791190       16.2679961642        5.4680260625
  N        13.6590175209       16.0507140293       16.0507153017
  C        12.3404890138       16.3172807041       16.3172812907
  N        19.5233783013       16.0028825071       17.5582431713
  C        20.8407529126       16.2729731313       17.2889133156
  N         8.6983667005       16.0280216903        6.7179038467
  C        10.0132956136       16.3070587365        6.4421336707
  N         6.5127737922       17.5734424473        3.0340116753
  C         6.2468224023       17.2999079570        1.7168176252
  N         6.5521074623        6.7321797442       13.8546383044
  C         6.2798901101        6.4676641506       12.5358090354
  N         6.5079087274        5.1928276492       19.7199115051
  C         6.2375124374        5.4654271588       21.0361456183
  N         6.5585641164       16.0082559976        8.8944313970
  C         6.2917104638       16.2765150363       10.2139830006
  N        15.8359778371       17.5697157185       19.7195370832
  C        16.1015138642       17.2934297207       21.0357323038
  N        15.7766675558        6.7319911631        8.8953285396
  C        16.0474350479        6.4693127219       10.2155521634
  N        15.8269862752        5.1799706451        3.0303609250
  C        16.0950177193        5.4555365605        1.7147083804
  N        15.7926377463       16.0183346444       13.8578636079
  C        16.0617598156       16.2856073476       12.5383651911
 Zn        14.5002760378       14.7572972952       14.7573009373
 Cl        13.1747239254       13.5770691701       13.5770667952
 Zn        14.5416879422        3.8615588133        3.8615614721
 Cl        13.3685065536        2.6010477733        2.6010497647
 Zn         3.6842710833       14.7106206619        3.8990667623
 Cl         2.4488615478       13.4746318610        2.6734335058
 Zn         3.6842699065        3.8990673781       14.7106211437
 Cl         2.4488656893        2.6734336443       13.4746275624
 Zn         7.8482955716        8.0112251543       14.7257854575
 Cl         9.0855494207        9.2384422491       13.4950351847
 Zn         7.7968007403       18.8766187121        3.8905985334
 Cl         9.0094322092       20.1231449926        2.6514948814
 Zn        18.6504994237        8.0491669175        3.9023978638
 Cl        19.8817636152        9.2891361115        2.6775756257
 Zn        18.6634383870       18.8468896199       14.7099503450
 Cl        19.8928610630       20.0729655567       13.4676545706
 Zn         7.8482957541       14.7257848087        8.0112251250
 Cl         9.0855448914       13.4950297437        9.2384416482
 Zn         7.7967992077        3.8905977671       18.8766212420
 Cl         9.0094253849        2.6514929683       20.1231511294
 Zn        18.6634384083       14.7099506138       18.8468879495
 Cl        19.8928538512       13.4676491821       20.0729656481
 Zn        18.6505025989        3.9023985217        8.0491644020
 Cl        19.8817676959        2.6775815744        9.2891375637
 Zn        14.4894025119        7.9939201866        7.9939218742
 Cl        13.1529704069        9.1674544535        9.1674494064
 Zn        14.5486341164       18.8823844166       18.8823867330
 Cl        13.3697208586       20.1405031426       20.1404998036
 Zn         3.6845232334        8.0548644666       18.8367413065
 Cl         2.4467397496        9.2948387358       20.0564139734
 Zn         3.6845242622       18.8367414445        8.0548648266
 Cl         2.4467456421       20.0564171034        9.2948403676
 Zn        14.4960365473       14.7669394710        8.0028822481
 Cl        13.1661937538       13.6268742014        9.2170748697
 Zn        14.5448049863        3.8629133826       18.8831211398
 Cl        13.3673751529        2.6032930043       20.1409533190
 Zn         3.6959267780       14.7091727570       18.8438645120
 Cl         2.4624387213       13.4718846011       20.0710825154
 Zn         3.6776461447        3.9040885609        8.0509523059
 Cl         2.4383400121        2.6859723695        9.2902884214
 Zn         7.8433072289        8.0131409124        8.0131430787
 Cl         9.0815297457        9.2419965271        9.2419995611
 Zn         7.8107426531       18.8723695925       18.8723680219
 Cl         9.0301416459       20.1114268754       20.1114229441
 Zn        18.6594600631        8.0467345892       18.8565345543
 Cl        19.8930761115        9.2789695641       20.0868790522
 Zn        18.6594624110       18.8565181657        8.0467364315
 Cl        19.8930768380       20.0868723347        9.2789632017
 Zn        14.4960349334        8.0028857630       14.7669404592
 Cl        13.1661832541        9.2170760538       13.6268838802
 Zn        14.5448062300       18.8831215392        3.8629055619
 Cl        13.3673693174       20.1409581311        2.6032977800
 Zn         3.6776462954        8.0509520510        3.9040931319
 Cl         2.4383396682        9.2902870073        2.6859769657
 Zn         3.6959278579       18.8438645845       14.7091707328
 Cl         2.4624358044       20.0710784433       13.4718813367
 Zn         7.8553731796       14.7282770281       14.7282784098
 Cl         9.0936590444       13.5003146238       13.5003186205
 Zn         7.7887373190        3.8834224668        3.8834216176
 Cl         8.9947799715        2.6372631399        2.6372637742
 Zn        18.6554475302       14.7090961776        3.9053757946
 Cl        19.8846101860       13.4594175097        2.6874938641
 Zn        18.6554459631        3.9053742457       14.7090979478
 Cl        19.8846104542        2.6875026275       13.4594113620
 Zn         5.7541265742        5.9618093835       16.7810915699
 Zn        16.5958167088       16.7921650068       16.7921593603
 Zn        16.5729699008        5.9540937348        5.9540946806
 Zn         5.7541278546       16.7810905995        5.9618094461
 Zn         5.7435969465        5.9610972194        5.9610984265
 Zn        16.5860225296       16.8004056256        5.9556274186
 Zn         5.7753196229       16.7821966459       16.7821968788
 Zn        16.5860287706        5.9556295816       16.8003809994
  N         3.5732487374        5.9771489456       16.7728470936
  N        14.3882844065        5.9173652089        5.9173657137
  N        18.7768399281       16.7800188962       16.7800166043
  N         7.9441156251       16.8040898512        5.9460925441
  N        18.7576092086        5.9767437034        5.9767412855
  N         7.9441130801        5.9460886962       16.8040929279
  N         3.5732520530       16.7728478408        5.9771490736
  N        14.4027485058       16.8283810565       16.8283818892
  N        16.5951457116        3.7789287179        5.9646367467
  N        16.5802450866       14.6028060580       16.7884008578
  N        16.6068395458       18.9720988727       16.7867759770
  N        16.5627413110        8.1514044642        5.9590172639
  N         5.7387255196       18.9708605339        5.9762571146
  N         5.7713906079        8.1507224948       16.7795443508
  N         5.7407478204        3.7802748871       16.7900817335
  N         5.7682275888       14.5996215160        5.9588312014
  N         5.7407489376       16.7900805157        3.7802728949
  N         5.7682281146        5.9588306977       14.5996223158
  N        16.6068405146       16.7867746424       18.9721003163
  N        16.5627501457        5.9590225146        8.1514059871
  N         5.7387238208        5.9762557766       18.9708626420
  N         5.7713910150       16.7795447260        8.1507206563
  N        16.5951461312        5.9646330719        3.7789321884
  N        16.5802398156       16.7884050220       14.6028079019
  N         5.7297235783        3.7793334329        5.9688641538
  N         5.7810717729       14.6002860036       16.7856831803
  N        16.6020981590       18.9741990731        5.9616537393
  N        16.5764367652        8.1509901084       16.8007685670
  N         5.7551946701       18.9718752825       16.7854752540
  N         5.7625117656        8.1499734534        5.9635804807
  N        16.5999324120        3.7779212758       16.7854163028
  N        16.5692989645       14.6046981944        5.9683050732
  N         3.5846956511       16.7760964798       16.7760968680
  N        14.3954596995       16.8325223942        5.9215155796
  N        18.7664156150       16.7823704428        5.9745449873
  N         7.9530599430       16.8032848701       16.8032858471
  N        18.7664126889        5.9745484552       16.7823699842
  N         7.9370855053        5.9436330559        5.9436347345
  N         3.5650955534        5.9780641393        5.9780668705
  N        14.3954581882        5.9215221287       16.8325202765
  N        16.6020972354        5.9616542952       18.9742000458
  N        16.5764330457       16.8007701906        8.1509925018
  N        16.5999340900       16.7854182381        3.7779227845
  N        16.5693020676        5.9683132044       14.6046970098
  N         5.7297226701        5.9688659533        3.7793355638
  N         5.7810730592       16.7856806816       14.6002840895
  N         5.7551956386       16.7854763796       18.9718733510
  N         5.7625105085        5.9635772201        8.1499742258
  C        11.1857903035       15.7614305369       15.7614315548
  H        11.1972463228       14.9858848989       14.9858864045
  C        11.1537353601        4.8679250328        4.8679259875
  H        11.1422623054        4.0925341225        4.0925362473
  C         0.3487309251       15.7191550864        4.9167707335
  H         0.3479272029       14.9438446512        4.1409376983
  C         0.3487265217        4.9167717672       15.7191545873
  H         0.3479202725        4.1409381403       14.9438446482
  C        11.1786075864        6.9862776696       15.7629276363
  H        11.1902678690        7.7617096328       14.9873097278
  C        11.1605191648       17.8828712152        4.8739003450
  H        11.1497803150       18.6600110419        4.1002678259
  C         0.3415909343        7.0386565031        4.9214839571
  H         0.3416569638        7.8146468224        4.1463218318
  C         0.3605601441       17.8390500947       15.7216152495
  H         0.3607703432       18.6141861555       14.9455948884
  C        11.1786131745       15.7629246420        6.9862746187
  H        11.1902774590       14.9873064984        7.7617063957
  C        11.1605199214        4.8739027373       17.8828732474
  H        11.1497853201        4.1002697622       18.6600127713
  C         0.3605585642       15.7216162681       17.8390497429
  H         0.3607662096       14.9455964088       18.6141864538
  C         0.3415897222        4.9214826594        7.0386550728
  H         0.3416565026        4.1463197189        7.8146446293
  C        11.1717567446        6.9840896698        6.9840893922
  H        11.1832187232        7.7596029627        7.7596024439
  C        11.1687052097       17.8779621613       17.8779619407
  H        11.1585965514       18.6533706392       18.6533704797
  C         0.3509812047        7.0367356628       17.8341063936
  H         0.3522162767        7.8134267759       18.6086037556
  C         0.3509843612       17.8341059918        7.0367357883
  H         0.3522190595       18.6086027013        7.8134277456
  C        15.5038936646       11.3756349818       15.7453614724
  H        14.7152769543       11.3731878932       14.9834625361
  C        15.5514944221        0.5558213093        4.8974010580
  H        14.7866782064        0.5555982954        4.1108823959
  C         4.7002000847       11.3750922320        4.9152746412
  H         3.9185359977       11.3745118835        4.1458378076
  C         4.6953732877        0.5546111424       15.7200804753
  H         3.9257489688        0.5534849695       14.9387166053
  C        15.4923289254       11.3776230915        7.0143102704
  H        14.7054400409       11.3759860534        7.7777574690
  C        15.5548217368        0.5540520504       17.8496645123
  H        14.7889759771        0.5534841084       18.6351600210
  C         4.7150618836       11.3762020429       17.8328120071
  H         3.9336584448       11.3759737289       18.6025843116
  C         4.6832832988        0.5550330028        7.0437476123
  H         3.9143306382        0.5554056683        7.8257189525
  C         6.8479121222       11.3750790071       15.7320979459
  H         7.6289875893       11.3754343134       14.9621532649
  C         6.7819486757        0.5554985978        4.9083951953
  H         7.5507401610        0.5552675285        4.1259966225
  C        17.6300517762       11.3785396473        4.9207354571
  H        18.4124291267       11.3790578814        4.1518796465
  C        17.6499619479        0.5558601590       15.7095042548
  H        18.4176992034        0.5563900816       14.9263638747
  C         6.8336799232       11.3748544635        7.0152571819
  H         7.6149204326       11.3755772430        7.7851106489
  C         6.7957502533        0.5578880585       17.8538084632
  H         7.5652737594        0.5592087910       18.6354395378
  C        17.6437867730       11.3784930793       17.8377838121
  H        18.4262891146       11.3802138389       18.6064478319
  C        17.6442392832        0.5570566737        7.0401061287
  H        18.4115344522        0.5571307622        7.8237013411
  C        15.5038937123       15.7453596679       11.3756375374
  H        14.7152756447       14.9834623398       11.3731903997
  C        15.5514962202        4.8973960317        0.5558241811
  H        14.7866809254        4.1108764900        0.5556010146
  C         4.6953736052       15.7200806147        0.5546085127
  H         3.9257476565       14.9387182813        0.5534810470
  C         4.7001978249        4.9152739105       11.3750935685
  H         3.9185330972        4.1458376804       11.3745137106
  C         6.8479127646       15.7320956292       11.3750756508
  H         7.6289878928       14.9621505482       11.3754276160
  C         6.7819499027        4.9083981986        0.5555016769
  H         7.5507427731        4.1260009076        0.5552725552
  C        17.6499651965       15.7095043065        0.5558628934
  H        18.4177024307       14.9263638750        0.5563954542
  C        17.6300515894        4.9207349673       11.3785429098
  H        18.4124319615        4.1518823234       11.3790674906
  C        15.4923264291        7.0143086021       11.3776225125
  H        14.7054383660        7.7777567366       11.3759841377
  C        15.5548265844       17.8496662271        0.5540537773
  H        14.7889817675       18.6351626427        0.5534862360
  C         4.6832821295        7.0437482963        0.5550345032
  H         3.9143290251        7.8257191116        0.5554061552
  C         4.7150633818       17.8328105613       11.3762005427
  H         3.9336602288       18.6025830819       11.3759718950
  C         6.8336799307        7.0152541366       11.3748547696
  H         7.6149214969        7.7851065052       11.3755782780
  C         6.7957526654       17.8538065546        0.5578858426
  H         7.5652762877       18.6354373843        0.5592044918
  C        17.6442365676        7.0401048849        0.5570607531
  H        18.4115292851        7.8237025054        0.5571361238
  C        17.6437881727       17.8377810603       11.3784962236
  H        18.4262893748       18.6064464875       11.3802190978
 Xe        11.3747639538       11.3700679753       11.3700710946
