     409
 i =     180, E =     -952.6392380110
  N         2.7193241821        5.2448640909       16.0391078776
  C         1.4207841616        5.5179528605       16.3101596677
  N        13.5044419390        5.2052725487        5.2091858555
  C        12.2059015986        5.4783878076        5.4802089063
  N        19.4533912907       17.5312364415       16.0045538613
  C        20.7530344683       17.2581509833       16.2702436563
  N         8.6236832373       17.5708367787        5.2192713379
  C         9.9233328310       17.2977291084        5.4849328746
  N        19.3890141192        5.1837260305        6.7370090614
  C        20.6895153999        5.4473001490        6.4659640005
  N         8.6039448814        5.2233155229       17.5669297898
  C         9.9044523627        5.4868968406       17.2958983200
  N         2.7454242293       17.5923807770        6.7713946325
  C         1.4438096175       17.3288255015        6.5057058442
  N        13.5751769340       17.5527887089       17.5566706020
  C        12.2735622248       17.2891995109       17.2910185737
  N        15.6672719218        3.0266258715        5.2047179394
  C        15.9314255973        1.7255624837        5.4725043321
  N        15.7291858106       13.8340800254       16.0122448703
  C        15.9933250808       12.5330162532       16.2800490314
  N        15.7539121280       19.7154862271       17.5521708450
  C        16.0264865616       21.0145777830       17.2832783898
  N        15.6920044062        8.9080774491        6.7446479422
  C        15.9645552400       10.2071761718        6.4757320647
  N         6.4608469393       19.7494431695        5.2237399656
  C         6.1978089254       21.0505012423        5.4926247335
  N         6.4435717106        8.9420270037       16.0314220379
  C         6.1805489652       10.2430916288       16.3003217605
  N         6.4252044443        3.0605747347       17.5714303898
  C         6.1515298859        1.7614778989       17.3036577122
  N         6.4424836224       13.8680402784        6.7637488116
  C         6.1688104434       12.5689426933        6.4959707090
  N         4.9028124938       16.0444681799        3.0562406346
  C         5.1694287896       16.3118604524        1.7555985238
  N         4.8855317597        5.2369128536       13.8638259136
  C         5.1521771363        5.5042735034       12.5631833459
  N        17.2847591850       15.9992241012       19.7196823827
  C        17.0201019640       16.2685741399       21.0203153629
  N        17.2228426670        5.1916733255        8.9122969442
  C        16.9581750700        5.4610075002       10.2129364492
  N         4.9033226083        6.7768742192       19.7452463818
  C         5.1733602317        6.5075318778       21.0447749894
  N         4.9205986131       17.5844316500        8.9377097366
  C         5.1906422860       17.3151028947       10.2372448221
  N        17.2163337043        6.7316559237        3.0308070038
  C        16.9443587955        6.4642538957        1.7312769259
  N        17.2782568200       17.5391951493       13.8382382445
  C        17.0062474466       17.2718310058       12.5387081460
  N         4.8629294407        3.0662224826        6.7670135300
  C         5.1259305225        1.7651593381        6.4980929575
  N         4.9248352777       13.8736756369       17.5745331558
  C         5.1878639134       12.5726123454       17.3056428049
  N        17.2715456799       19.7098468594        6.7413998324
  C        17.0074448912       21.0109048369        6.4735596716
  N        17.2542766483        8.9024316590       17.5490702690
  C        16.9901461786       10.2034960275       17.2812666587
  N         4.9432072102       19.7550812874       16.0345222615
  C         5.2168467766       21.0541728646       16.3023317593
  N         4.8812943381        8.9476734941        5.2269956711
  C         5.1549504222       10.2467717288        5.4947822582
  N        17.2295468192        3.0209793593       16.0091355548
  C        16.9570177770        1.7218824351       16.2780723065
  N        17.2468239685       13.8284438893        5.2014563377
  C        16.9742821818       12.5293465642        5.4703779490
  N         2.7620997455       16.0524129966       17.5789981119
  C         1.4624517640       16.3255488472       17.3133596472
  N        13.5472184219       16.0128255254        6.7490787647
  C        12.2475696695       16.2859485985        6.4834234116
  N        19.4254299686       15.9912800784        5.1969651902
  C        20.7270394873       16.2548865655        5.4626040589
  N         8.6403597303       16.0308715937       16.0268878433
  C         9.9419756598       16.2944555485       16.2925491460
  N        19.4169743449        6.7236897059       17.5445960894
  C        20.7155091377        6.4505581658       17.2735867338
  N         8.5872654517        6.7632859300        6.7593148428
  C         9.8858071156        6.4901670299        6.4882924498
  N         2.7026497350        6.7848365142        5.2314966389
  C         1.4021432215        6.5212316771        5.5025102538
  N        13.5324033165        6.7452341497       16.0167781433
  C        12.2318966431        6.4816542082       16.2878203224
  N        15.7052063521        5.1973163041       19.7229383830
  C        15.9772442693        5.4646565309       21.0224629100
  N        15.7224836969       16.0048766769        8.9154011523
  C        15.9945022702       16.2722354432       10.2149325020
  N        15.7159722588       17.5448327252        3.0339104355
  C        15.9806855357       17.2755394801        1.7332721868
  N        15.6987028042        6.7372808521       13.8414961653
  C        15.9633917583        6.4679590806       12.5408573215
  N         6.4031779858        5.2312778640        3.0531380920
  C         6.1331083272        5.5005871134        1.7536043287
  N         6.4650901260       16.0388262409       13.8605706575
  C         6.1950424546       16.3081600183       12.5610363236
  N         6.4828819189       17.5787790248       19.7419894578
  C         6.2162109141       17.3114411175       21.0426263631
  N         6.4209627263        6.7712345557        8.9346028663
  C         6.1543167582        6.5038711230       10.2352466680
  N        19.4342511944       17.5312383816        6.7369268713
  C        20.7327860566       17.2581504075        6.4658739062
  N         8.6491818714       17.5708303909       17.5668465909
  C         9.9477228719       17.2977279184       17.2958145650
  N         2.7001879489        5.2448705154        6.7714786488
  C         1.4005393532        5.5179630258        6.5057963651
  N        13.5299407810        5.2052652693       17.5567568919
  C        12.2302923208        5.4783774688       17.2910969573
  N         2.7645613857       17.5923760519       16.0390145865
  C         1.4640555393       17.3288247521       16.3100812180
  N        13.5496791177       17.5527889728        5.2090946986
  C        12.2491727498       17.2892086199        5.4801300960
  N        19.4081530130        5.1837254332       16.0046403474
  C        20.7097624357        5.4472827195       16.2703284770
  N         8.5784451017        5.2233216061        5.2193602555
  C         9.8800610839        5.4869085110        5.4850126971
  N         6.4863492764       19.7494376412       17.5713088798
  C         6.2221929872       21.0504957568       17.3035245592
  N         6.4244291177        8.9420289937        6.7637879641
  C         6.1602991654       10.2430940757        6.4959772031
  N         6.3997066284        3.0605813039        5.2238576156
  C         6.1271407614        1.7614841203        5.4927580805
  N         6.4616180989       13.8680354349       16.0313837601
  C         6.1890706994       12.5689377755       16.3003059491
  N        15.6927635930        3.0266204393       17.5522840045
  C        15.9558265745        1.7255574540       17.2834257103
  N        15.7100505934       13.8340858226        6.7446152550
  C        15.9730775215       12.5330222601        6.4757169465
  N        15.7284158383       19.7154908654        5.2046008320
  C        16.0020929549       21.0145822989        5.4723726168
  N        15.7111404604        8.9080743823       16.0122806112
  C        15.9848020916       10.2071725522       16.2800674582
  N        17.2508052834        6.7316395925       19.7197459191
  C        16.9841810423        6.4642542867       21.0203826938
  N        17.2680849013       17.5391938606        8.9122098522
  C        17.0014410066       17.2718354233       10.2128530492
  N         4.8688576920        6.7768833997        3.0563080791
  C         5.1335206826        6.5075398905        1.7556695074
  N         4.9307652417       17.5844263960       13.8637390344
  C         5.1954508547       17.3151074451       12.5631005062
  N        17.2502936265       15.9992291739        3.0307404669
  C        16.9802696890       16.2685836610        1.7312070273
  N        17.2330202944        5.1916734798       13.8383262894
  C        16.9629728053        5.4610011457       12.5387922530
  N         4.9372738100       16.0444653700       19.7451818033
  C         5.2092729832       16.3118445654       21.0447064583
  N         4.8753630731        5.2369137871        8.9377957608
  C         5.1473717861        5.5042769655       10.2373271150
  N        17.2906854898       19.7098449121       16.0090160835
  C        17.0276936254       21.0109024288       16.2779465457
  N        17.2287732355        8.9024371203        5.2014905235
  C        16.9657632906       10.2035014600        5.4703965438
  N         4.8820635091        3.0662166607       16.0346393515
  C         5.1461741840        1.7651532997       16.3024686210
  N         4.8993388305       13.8736811300        5.2269606533
  C         5.1634783954       12.5726173262        5.4947588436
  N        17.2104064547        3.0209844419        6.7415160108
  C        16.9367736955        1.7218874663        6.4737010943
  N        17.2723270365       13.8284372999       17.5490350833
  C        16.9986645061       12.5293404009       17.2812530308
  N         4.9240723165       19.7550843210        6.7668946172
  C         5.1966000761       21.0541764443        6.4979552231
  N         4.9067926410        8.9476690291       17.5745696109
  C         5.1793405356       10.2467673992       17.3056568825
  N        19.3914757146        6.7236930469        5.1970320873
  C        20.6911189891        6.4505589529        5.4626736829
  N         8.6064054793        6.7632798254       16.0269527185
  C         9.9060554862        6.4901770213       16.2926252653
  N         2.7281472753        6.7848317484       17.5790643495
  C         1.4265326149        6.5212277494       17.3134241642
  N        13.5132661050        6.7452401974        6.7491431423
  C        12.2116507348        6.4816457257        6.4834893825
  N         2.7366009924       16.0524249729        5.2314266051
  C         1.4380610036       16.3255482053        5.5024437838
  N        13.5663545992       16.0128215483       16.0167146270
  C        12.2678142482       16.2859402203       16.2877399054
  N        19.4509296522       15.9912733302       17.5445335100
  C        20.7514307503       16.2548820781       17.2735234040
  N         8.6212205993       16.0308767330        6.7592527708
  C         9.9217285095       16.2944683689        6.4882253661
  N         6.4484157564       17.5787901338        3.0530503451
  C         6.1763846415       17.3114447638        1.7535203830
  N         6.4311355274        6.7712345297       13.8606367357
  C         6.1591187470        6.5038711614       12.5611059336
  N         6.4376442315        5.2312732230       19.7420762102
  C         6.1729379793        5.5005749932       21.0427096552
  N         6.4549168322       16.0388305109        8.9345397854
  C         6.1902426239       16.3081642646       10.2351796583
  N        15.7504391935       17.5448254248       19.7228526177
  C        16.0205217177       17.2755280928       21.0223807238
  N        15.6885316083        6.7372818019        8.9154653735
  C        15.9585855313        6.4679568939       10.2150006834
  N        15.6707410959        5.1973232168        3.0339970342
  C        15.9374011910        5.4646713372        1.7333548813
  N        15.7326553469       16.0048725705       13.8414291996
  C        15.9993023717       16.2722372856       12.5407866721
 Zn        14.3531625664       14.6338160038       14.6389779299
 Br        13.0354021472       13.3283602567       13.3314303006
 Zn        14.2912138810        3.8262752325        3.8314593519
 Br        12.9734840711        2.5208022175        2.5238945065
 Zn         3.5233234520       14.6733815004        3.8537032399
 Br         2.2055470361       13.3679557062        2.5461382356
 Zn         3.5060468875        3.8658660505       14.6613390216
 Br         2.1882700860        2.5603929040       13.3538216601
 Zn         7.8139138116        8.1422924296       14.6524831424
 Br         9.1262633130        9.4477506154       13.3395052364
 Zn         7.8312344724       18.9498252996        3.8448031023
 Br         9.1435482868       20.2553113548        2.5318142337
 Zn        18.5990989581        8.1027453561        3.8225603239
 Br        19.9114755676        9.4081675846        2.5095707233
 Zn        18.6610213754       18.9102337646       14.6300349765
 Br        19.9733921501       20.2157147062       13.3170985580
 Zn         7.8243293308       14.6576927294        8.1370104183
 Br         9.1324903226       13.3426353111        9.4445776263
 Zn         7.8070970350        3.8501327262       18.9446632272
 Br         9.1152213948        2.5350637227       20.2522584741
 Zn        18.6541605035       14.6180397173       18.9222760812
 Br        19.9623423957       13.3030234157       20.2298661546
 Zn        18.5922379597        3.8105435184        8.1148103402
 Br        19.9004249774        2.4954736074        9.4223419926
 Zn        14.3158414549        8.1184250401        8.1236003377
 Br        13.0130937132        9.4334825216        9.4365608885
 Zn        14.3777024768       18.9259572338       18.9311113161
 Br        13.0749961887       20.2410368101       20.2440932202
 Zn         3.5306309749        8.1580586897       18.9534976086
 Br         2.2278723453        9.4730806287       20.2664859007
 Zn         3.5479072009       18.9655482543        8.1458874416
 Br         2.2451486044       20.2806337090        9.4588121887
 Zn        14.3397098449       14.6338201652        8.1235567089
 Br        13.0273609976       13.3283632319        9.4365356091
 Zn        14.3223891038        3.8262609626       18.9312104668
 Br        13.0100762219        2.5207926614       20.2442169990
 Zn         3.5544987035       14.6733672693       18.9534534360
 Br         2.2421393116       13.3679464161       20.2664606718
 Zn         3.4925940673        3.8658703315        8.1459868742
 Br         2.1802289101        2.5603962591        9.4589360311
 Zn         7.8004577952        8.1422934422        8.1370542889
 Br         9.1182188824        9.4477506697        9.4446028790
 Zn         7.8624243671       18.9498257646       18.9445646171
 Br         9.1801438156       20.2553051523       20.2521354467
 Zn        18.6302889146        8.1027458034       18.9223205482
 Br        19.9480708277        9.4081616005       20.2298919225
 Zn        18.6475654866       18.9102346145        8.1147111545
 Br        19.9653476605       20.2157141408        9.4222186513
 Zn        14.3292943931        8.1184238991       14.6390252230
 Br        13.0211344838        9.4334829677       13.3314594415
 Zn        14.3465268140       18.9259574256        3.8313459921
 Br        13.0384034058       20.2410438181        2.5237682063
 Zn         3.4994554302        8.1580588302        3.8537509272
 Br         2.1912792393        9.4730875913        2.5461673629
 Zn         3.5613598851       18.9655473132       14.6612252578
 Br         2.2531893630       20.2806342219       13.3536951017
 Zn         7.8377861497       14.6576877583       14.6524354651
 Br         9.1405350871       13.3426314307       13.3394758246
 Zn         7.7759073920        3.8501469780        3.8449162301
 Br         9.0786262576        2.5350736980        2.5319401268
 Zn        18.6229709586       14.6180539730        3.8225123492
 Br        19.9257470657       13.3030329487        2.5095413094
 Zn        18.6056943414        3.8105383873       14.6301484824
 Br        19.9084701434        2.4954700367       13.3172245037
 Zn         5.6644309573        6.0040970272       16.8029787662
 Zn        16.5114944553       16.7719947622       16.7805831905
 Zn        16.4495811191        5.9645063400        5.9731168762
 Zn         5.6817078335       16.8115945245        5.9953602279
 Zn         5.6421129383        6.0041014872        5.9954364520
 Zn        16.4891761923       16.7719993120        5.9730405709
 Zn         5.7040260838       16.8115898487       16.8029026184
 Zn        16.4718993403        5.9645017117       16.7806593370
  N         3.4621545619        6.0121581609       16.8075448096
  N        14.2472754490        5.9725493359        5.9776412556
  N        18.7137361404       16.7639402124       16.7760485919
  N         7.8840274485       16.8035570709        5.9907827739
  N        18.6518205784        5.9564269063        5.9685575446
  N         7.8667506402        5.9959992046       16.7984616012
  N         3.4794315305       16.8196811568        5.9999012072
  N        14.3091873246       16.7800989381       16.7851668360
  N        16.4415326927        3.7622255592        5.9731227880
  N        16.5034612566       14.5696818727       16.7806337338
  N        16.5195791991       18.9742399272       16.7805844481
  N        16.4576822564        8.1668310742        5.9730740377
  N         5.6897636935       19.0138378698        5.9953318994
  N         5.6724685268        8.2064220562       16.8029919379
  N         5.6563572391        3.8018162305       16.8030109023
  N         5.6736127136       14.6092838547        5.9953534468
  N         5.6771519514       16.8116150854        3.7930692908
  N         5.6598585817        6.0040733473       14.6006580855
  N        16.5160582751       16.7720096093       18.9828385802
  N        16.4541626757        5.9644791350        8.1754516728
  N         5.6689659034        6.0040818482       19.0052322586
  N         5.6862250461       16.8116228539        8.1976952722
  N        16.4450569667        5.9644938797        3.7708259283
  N        16.5069836204       16.7720292871       14.5782604747
  N         5.6340314132        3.8018223344        5.9954383414
  N         5.6959297936       14.6092787626       16.8029502510
  N        16.4972660241       18.9742431009        5.9730141201
  N        16.4800042152        8.1668268485       16.7806780218
  N         5.7120871625       19.0138335293       16.8029056331
  N         5.6501582248        8.2064249743        5.9953952285
  N        16.4638491273        3.7622204808       16.7806931454
  N        16.4811389907       14.5696880883        5.9730277295
  N         3.5017494573       16.8196754538       16.8074677061
  N        14.2868702627       16.7801012693        5.9775619661
  N        18.6914161462       16.7639501582        5.9684845970
  N         7.9063463077       16.8035585380       16.7983883404
  N        18.6741392487        5.9564235720       16.7761317646
  N         7.8444307117        5.9960071063        5.9908646174
  N         3.4398378610        6.0121565094        5.9999710886
  N        14.2695934950        5.9725415582       16.7852388368
  N        16.4764657545        5.9644926509       18.9829131999
  N        16.4937607798       16.7720325715        8.1753757983
  N        16.4846460033       16.7720184053        3.7707492223
  N        16.4673826398        5.9644738802       14.5783380785
  N         5.6375525748        6.0040897113        3.7931470795
  N         5.6994503139       16.8116228254       14.6005815665
  N         5.7085665239       16.8116079580       19.0051564746
  N         5.6466348418        6.0040776933        8.1977699062
  C        11.1018183711       15.7531745976       15.7531298580
  H        11.0974255027       14.9863593309       14.9863133467
  C        11.0399047404        4.9456186268        4.9456000112
  H        11.0355118743        4.1788040235        4.1787806473
  C         0.2720728006       15.7927996629        4.9678125847
  H         0.2676801798       15.0259814112        4.2009986973
  C         0.2547958207        4.9851869265       15.7755460618
  H         0.2504031675        4.2183690915       15.0087317621
  C        11.0698344068        7.0229329780       15.7531957180
  H        11.0710603501        7.7897519501       14.9863711732
  C        11.0871111503       17.8304971595        4.9455112408
  H        11.0883370640       18.5973125876        4.1786809575
  C         0.2400885989        7.0625129731        4.9678843501
  H         0.2413148043        7.8293288770        4.2010563860
  C         0.3020025174       17.8701109026       15.7754584439
  H         0.3032286839       18.6369282906       15.0086319520
  C        11.0837905918       15.7531844194        7.0228447578
  H        11.0825650482       14.9863695669        7.7896734109
  C        11.0665138627        4.9456206772       17.8305296848
  H        11.0652882535        4.1787997961       18.5973545203
  C         0.2986819824       15.7927964742       17.8527984721
  H         0.2974567089       15.0259772534       18.6196231238
  C         0.2367679987        4.9851948272        7.0452178530
  H         0.2355427031        4.2183791533        7.8120460624
  C        11.0518053686        7.0229342669        7.0228977890
  H        11.0561984418        7.7897473467        7.7897167530
  C        11.1137190240       17.8304873677       17.8304333837
  H        11.1181121384       18.5973043419       18.5972506561
  C         0.2666964751        7.0625015972       17.8528529765
  H         0.2710898317        7.8293206083       18.6196663820
  C         0.2839734492       17.8701070809        7.0451268180
  H         0.2883668389       18.6369239559        7.8119423554
  C        15.4509371418       11.3720620491       15.7441438815
  H        14.6825380102       11.3748719459       14.9789070406
  C        15.3890494498        0.5646162130        4.9365830167
  H        14.6206469356        0.5674264451        4.1713492346
  C         4.6210861464       11.4116621932        4.9588556705
  H         3.8526860811       11.4144720646        4.1936175845
  C         4.6037856229        0.6042069574       15.7665601299
  H         3.8353845169        0.6070172032       15.0013249732
  C        15.4329187991       11.3720662637        7.0138662275
  H        14.6676835867       11.3748754773        7.7822671359
  C        15.4156581696        0.5646109069       17.8215710217
  H        14.6504248319        0.5674204516       18.5899741123
  C         4.6476998715       11.4116569712       17.8437907421
  H         3.8824632666       11.4144662379       18.6121924219
  C         4.5857658295        0.6042112008        7.0362401767
  H         3.8205297748        0.6070206892        7.8046405353
  C         6.7207142872       11.4040474826       15.7621790813
  H         7.4859483592       11.4012387840       14.9937770572
  C         6.6587766926        0.5966016450        4.9546196216
  H         7.4240126271        0.5937931336        4.1862191290
  C        17.5059242858       11.3644567860        4.9322456763
  H        18.2711600256       11.3616480322        4.1638431434
  C        17.4886760106        0.5570013413       15.7399545840
  H        18.2539086228        0.5541928595       14.9715508079
  C         6.7026809190       11.4040505996        7.0318856102
  H         7.4710797401       11.4012409914        7.7971230395
  C         6.6853827332        0.5965952596       17.8395960311
  H         7.4537858517        0.5937859405       18.6048294690
  C        17.5325324967       11.3644504167       17.8171761051
  H        18.3009332164       11.3616408636       18.5824138127
  C        17.4706378806        0.5570045059        7.0096274678
  H        18.2390403379        0.5541951078        7.7748615255
  C        15.4579137439       15.7371864220       11.3789723080
  H        14.6882899913       14.9731777002       11.3805614788
  C        15.3960247212        4.9296041040        0.5715483490
  H        14.6263986168        4.1655974368        0.5731379466
  C         4.6280376379       15.7768081857        0.5937919793
  H         3.8584128034       15.0128002665        0.5953815231
  C         4.6107872197        4.9692217698       11.4013679581
  H         3.8411614977        4.2052128635       11.4029571443
  C         6.7276948228       15.7691774654       11.3970027723
  H         7.4917009685       14.9995510095       11.3954250016
  C         6.6657598413        4.9616007993        0.5895780669
  H         7.4297631802        4.1919712497        0.5879999606
  C        17.5129337681       15.7296082668        0.5671822472
  H        18.2769367041       14.9599783424        0.5656040943
  C        17.4956301128        4.9220198110       11.3747591299
  H        18.2596351166        4.1523900641       11.3731813537
  C        15.4259357917        7.0069421583       11.3790341057
  H        14.6619316688        7.7765706312       11.3806124754
  C        15.4432290690       17.8145283049        0.5714586005
  H        14.6792252509       18.5841573865        0.5730377774
  C         4.5960568917        7.0465198189        0.5938544138
  H         3.8320534784        7.8161492875        0.5954336222
  C         4.6579964431       17.8540957676       11.4012777543
  H         3.8939879245       18.6237220276       11.4028560397
  C         6.6957032769        7.0389208775       11.3970634371
  H         7.4653276389        7.8029292430       11.3954747288
  C         6.7129598942       17.8465092494        0.5894871474
  H         7.4825863766       18.6105157950        0.5878984827
  C        17.4809374574        6.9993146995        0.5672435477
  H        18.2505639713        7.7633211784        0.5656549924
  C        17.5428322896       17.8068859795       11.3746677129
  H        18.3124580066       18.5708951591       11.3730789492
 Xe        21.3004261510       10.7701223712       10.7864327870
