     409
 i =      56, E =    -5133.8842348109
  N         2.7841148830        5.2209606913       15.9857085273
  C         1.4664409106        5.5001349749       16.2473063473
  N        13.5631695113        5.1504901708        5.1402170254
  C        12.2433222700        5.4130680077        5.4129385704
  N        19.5765469378       17.5919423197       16.0315866711
  C        20.8945722735       17.3199274492       16.2990156860
  N         8.7093732711       17.5482916400        5.2134128525
  C        10.0271163140       17.2723946155        5.4788348337
  N        19.4258297418        5.2061757380        6.7690383868
  C        20.7436182795        5.4804876952        6.5013192832
  N         8.6469888697        5.2028153197       17.5461883089
  C         9.9653567523        5.4637779554       17.2716252477
  N         2.8442306077       17.5474786790        6.7742576947
  C         1.5258069146       17.2826880100        6.5024478403
  N        13.7154837267       17.6061875371       17.6068465631
  C        12.3968980625       17.3369822939       17.3373963677
  N        15.7393702445        3.0122085425        5.1853867245
  C        16.0292113284        1.6990627432        5.4586920995
  N        15.8594907826       13.8961277454       16.0317739418
  C        16.1125162408       12.5755908913       16.2994545249
  N        15.8735005723       19.7475958948       17.5862925265
  C        16.1125242626       21.0658166765       17.2925511409
  N        15.7073257396        8.8879027683        6.7186276199
  C        16.0072002198       10.2042586609        6.4733061504
  N         6.5385996395       19.7114426516        5.2141029794
  C         6.2365887701       21.0262704175        5.4638646218
  N         6.5396335792        8.9104808256       15.9930149245
  C         6.2932238545       10.2309944837       16.2750884952
  N         6.4935419603        3.0688912194       17.5695199762
  C         6.2435705753        1.7475764228       17.3016221905
  N         6.5337701978       13.8300905254        6.7435766237
  C         6.2522316697       12.5160968281        6.4659099291
  N         4.9987653263       16.0169406078        3.0449978348
  C         5.2782248495       16.2921296993        1.7299862985
  N         4.9248329112        5.1861880546       13.8397328164
  C         5.1845757505        5.4551107092       12.5194135137
  N        17.4277424658       16.0209094450       19.7472085167
  C        17.1449080566       16.2777451919       21.0654944124
  N        17.2369833116        5.2112996401        8.8900846351
  C        16.9724646478        5.4976187612       10.2048185145
  N         4.9263033741        6.7785452798       19.6954430726
  C         5.1779126854        6.4975572172       21.0147532997
  N         5.0219026792       17.5417930671        8.9173817047
  C         5.3092090231       17.2837502969       10.2334455037
  N        17.3024566960        6.7059903685        3.0282226054
  C        17.0467977005        6.4345867608        1.7086833679
  N        17.4211100299       17.5916145275       13.8767093291
  C        17.1417631603       17.3182961265       12.5612957132
  N         4.8812158513        3.0161833640        6.7108670261
  C         5.1700700734        1.6994428078        6.4520795521
  N         5.0474758010       13.8777919553       17.5791144751
  C         5.3058882407       12.5594442601       17.3025354589
  N        17.3674959206       19.7199341106        6.7541344037
  C        17.0794465305       21.0339487539        6.4818818833
  N        17.3268379944        8.9185293214       17.5907849406
  C        17.0835528340       10.2399485842       17.3160690706
  N         5.0302898904       19.7290439996       16.0162616332
  C         5.2759870598       21.0501949762       16.2883424815
  N         4.9238696476        8.8946462736        5.1692166194
  C         5.2099003331       10.2089618568        5.4408913147
  N        17.3128251234        3.0755621779       15.9556404628
  C        17.0689445473        1.7546248292       16.2375839022
  N        17.3692961560       13.8356866410        5.2415817556
  C        17.0759284931       12.5197577137        5.4962549732
  N         2.8940280048       16.0269079943       17.5745866223
  C         1.5764722907       16.3000274883       17.3083897346
  N        13.6663850782       15.9858636779        6.7679285197
  C        12.3483872193       16.2498357444        6.4913540751
  N        19.5250895052       15.9976504538        5.2208474530
  C        20.8429626361       16.2704366965        5.4870234712
  N         8.7617623840       16.0407413301       16.0463982297
  C        10.0777191161       16.3154171815       16.3196647354
  N        19.4686489964        6.7794065682       17.5397360299
  C        20.7855777410        6.5156021128       17.2614424487
  N         8.6073301575        6.6923972228        6.7166836714
  C         9.9227119354        6.4200956311        6.4414050680
  N         2.7406740114        6.7627955085        5.1966456715
  C         1.4233325125        6.4972289771        5.4758920926
  N        13.6055929885        6.7613171620       16.0034327642
  C        12.2879216694        6.4767319578       16.2586274424
  N        15.7820582721        5.1710889402       19.6977284670
  C        16.0496192937        5.4288151175       21.0180355808
  N        15.8219729927       16.0237331907        8.9353523134
  C        16.1026739012       16.2974082671       10.2503293903
  N        15.8205361521       17.5310485790        3.0620837049
  C        16.1048764290       17.2712661759        1.7457195359
  N        15.7269453665        6.8257186519       13.8439180088
  C        15.9783555520        6.5420958945       12.5245141626
  N         6.4286439847        5.1811362158        3.0126473544
  C         6.1653676179        5.4602978535        1.6966010858
  N         6.6234401712       16.0269054768       13.8737302973
  C         6.3482046264       16.2885806410       12.5544127302
  N         6.5878740693       17.5929805570       19.7416505796
  C         6.3109907878       17.3182807989       21.0577598364
  N         6.4565951132        6.7282875519        8.8717107821
  C         6.1871876812        6.4653402215       10.1905677277
  N        19.5266735413       17.5590590214        6.7719062488
  C        20.8441766571       17.2869145037        6.5020595483
  N         8.7541413186       17.6044844033       17.5953193444
  C        10.0739965189       17.3355362345       17.3312747539
  N         2.7442435947        5.2042144214        6.7506621509
  C         1.4256813038        5.4814075821        6.4917752637
  N        13.6050298233        5.2143133283       17.5677690887
  C        12.2870864435        5.4712927990       17.2845210499
  N         2.8933271089       17.5774484028       16.0147470973
  C         1.5758660893       17.3133466188       16.2907531570
  N        13.6664707791       17.5490982194        5.2196255004
  C        12.3487772083       17.2734247013        5.4836509111
  N        19.4658439569        5.2357356925       15.9715785879
  C        20.7843791083        5.5051001899       16.2405779284
  N         8.6006121109        5.1495099613        5.1489623713
  C         9.9201154705        5.4118782502        5.4188251354
  N         6.5804004189       19.7525472304       17.5782452612
  C         6.2886240341       21.0663991524       17.3070465852
  N         6.4875757108        8.8744100666        6.7158951875
  C         6.2298685362       10.1953215095        6.4520194374
  N         6.4326140483        3.0242860788        5.1503539912
  C         6.1830963167        1.7060110932        5.4336706002
  N         6.6156210274       13.8713075297       16.0364734139
  C         6.3299859248       12.5538396603       16.2955096589
  N        15.7639600337        3.0599162203       17.5177602863
  C        16.0585660634        1.7456185136       17.2584158172
  N        15.8180566662       13.8439739440        6.8015181376
  C        16.0622429593       12.5250253135        6.5139953308
  N        15.8177740620       19.6971192985        5.1927064809
  C        16.0685030927       21.0182823678        5.4617318704
  N        15.7707065799        8.9422682358       16.0355820996
  C        16.0671478804       10.2555586816       16.3012094246
  N        17.3353496645        6.7285649973       19.7141196718
  C        17.0634224814        6.4460346394       21.0286331056
  N        17.3808582618       17.5768357930        8.9199580329
  C        17.1213468762       17.3101612649       10.2401195177
  N         4.8780125768        6.7418639877        3.0159013430
  C         5.1533880901        6.4796031046        1.6969198856
  N         5.0607164021       17.5758949388       13.8702240991
  C         5.3285006811       17.3002794364       12.5536998822
  N        17.3733527526       15.9728255589        3.0670264098
  C        17.1178675478       16.2530158390        1.7479646322
  N        17.2823185582        5.2679930308       13.8390401311
  C        16.9948922912        5.5268414699       12.5235820536
  N         5.0360801491       16.0327065058       19.7294073119
  C         5.2970578759       16.3008484461       21.0488135557
  N         4.9096654375        5.1641355744        8.8806204347
  C         5.1776866679        5.4435878662       10.1971568655
  N        17.4182299239       19.7553480548       16.0190200031
  C        17.1212798438       21.0721377267       16.2697900956
  N        17.2658629796        8.8819727308        5.1664949921
  C        17.0238563878       10.1998758914        5.4586852786
  N         4.9372817328        3.0449862279       16.0141062459
  C         5.2285028072        1.7311835268       16.2854824730
  N         4.9781479665       13.8514298385        5.1875904099
  C         5.2355716162       12.5301844609        5.4513185933
  N        17.2847920951        3.0376081804        6.7519210880
  C        17.0383706862        1.7155080701        6.4808553472
  N        17.4190934923       13.8753108109       17.5828874444
  C        17.1301578449       12.5609359115       17.3129527018
  N         4.9834562612       19.6986850722        6.7691354920
  C         5.2219055549       21.0182429960        6.4803298607
  N         4.9716844582        8.9241004056       17.5376804059
  C         5.2693458673       10.2388642443       17.2828008495
  N        19.4241934311        6.7535099755        5.2060335189
  C        20.7418729677        6.4920680550        5.4817545107
  N         8.6503771149        6.7230393903       15.9562010758
  C         9.9671820503        6.4584449994       16.2358102786
  N         2.7852617467        6.7872570380       17.5311801337
  C         1.4671231814        6.5195356613       17.2593221814
  N        13.5579077845        6.7054236453        6.6975058153
  C        12.2418978881        6.4261466065        6.4314673088
  N         2.8410943797       16.0071792154        5.2039860861
  C         1.5240576195       16.2742753374        5.4797162261
  N        13.7147833049       16.0491661853       16.0545317494
  C        12.3978564356       16.3192259840       16.3242055296
  N        19.5778223882       16.0333552387       17.5864901256
  C        20.8953082981       16.3036707754       17.3145284170
  N         8.7083466923       15.9662349914        6.7431412888
  C        10.0263653604       16.2415132673        6.4792115802
  N         6.5577547043       17.5697919718        3.0607104164
  C         6.2950638482       17.3067346923        1.7400510280
  N         6.4679962909        6.7543523792       13.8267016024
  C         6.1925600384        6.4784319691       12.5113170682
  N         6.4799447240        5.2220183436       19.7026185233
  C         6.1911917229        5.4797523888       21.0179267797
  N         6.5799486599       15.9874756167        8.9118137602
  C         6.3270115087       16.2700883652       10.2311281987
  N        15.8806935359       17.5858445026       19.7481018927
  C        16.1341950222       17.2985503084       21.0652901610
  N        15.6748874537        6.7602943577        8.8804338582
  C        15.9531718562        6.5096352909       10.2005618216
  N        15.7521080243        5.1446981863        3.0147018992
  C        16.0341815604        5.4158631973        1.6992094668
  N        15.8558231155       16.0463184120       13.8907740465
  C        16.1204641802       16.3084267776       12.5710747525
 Zn        14.5609666221       14.7637724532       14.7559592686
 Br        13.2281236844       13.4668330779       13.4404535746
 Zn        14.4497670278        3.8506749311        3.8700897881
 Br        13.1569044326        2.5243302542        2.5466558289
 Zn         3.6940946737       14.7261566576        3.8955085079
 Br         2.3716323344       13.4313613067        2.5700466406
 Zn         3.6378000653        3.8971964915       14.7182948547
 Br         2.3148461848        2.5754657714       13.4194280254
 Zn         7.7899675586        8.0253464716       14.6709505558
 Br         9.0884702928        9.3363705826       13.3376089832
 Zn         7.8473570467       18.8569069996        3.9376030147
 Br         9.1655488351       20.1745836997        2.6289891856
 Zn        18.5672510369        8.0185438288        3.8896984132
 Br        19.8919456227        9.3292565970        2.5801202008
 Zn        18.7165911912       18.8845382351       14.7335066215
 Br        20.0302219887       20.1986542381       13.4175503738
 Zn         7.8424046261       14.6716506771        8.0339744109
 Br         9.1472806344       13.3423344565        9.3428017511
 Zn         7.7856320889        3.9375153619       18.8581546691
 Br         9.1007784355        2.6283587481       20.1776190255
 Zn        18.7179706474       14.7292670260       18.8759751425
 Br        20.0277103810       13.4062463487       20.1861650464
 Zn        18.5516749949        3.9190710627        8.0561222705
 Br        19.8592391397        2.6137107971        9.3854372145
 Zn        14.3884651345        8.0269143250        7.9832158945
 Br        13.0126601845        9.3561204770        9.2204083345
 Zn        14.5960102744       18.8882601592       18.8924047049
 Br        13.2854132124       20.2030262590       20.2121818372
 Zn         3.6549301895        8.0781466078       18.8206209818
 Br         2.3499184414        9.4090891168       20.1287382039
 Zn         3.7132326803       18.8275224389        8.0704986064
 Br         2.4034010796       20.1405356938        9.3925046742
 Zn        14.5317579290       14.7194024745        8.0861066065
 Br        13.1924117456       13.4357637919        9.4082645499
 Zn        14.4762514737        3.8990440215       18.8283180176
 Br        13.1660233905        2.5747490449       20.1373816635
 Zn         3.7496036989       14.7341788547       18.8689021747
 Br         2.4290657416       13.4223349483       20.1787809210
 Zn         3.6068041758        3.8853733520        8.0157196711
 Br         2.2884236285        2.5754947894        9.3334627050
 Zn         7.7661073562        7.9996352621        8.0075358244
 Br         9.0800857030        9.3064351769        9.3285989422
 Zn         7.8749210260       18.8944484162       18.8797200957
 Br         9.1782964104       20.2178337528       20.1971006006
 Zn        18.6166369156        8.0409663557       18.8719218448
 Br        19.9464939664        9.3329338472       20.1930287721
 Zn        18.6658828518       18.8718219029        8.0498941899
 Br        19.9876104656       20.1930461963        9.3498712774
 Zn        14.4510532378        8.1065104650       14.7530425419
 Br        13.0502316515        9.4499085316       13.5608554741
 Zn        14.5241601205       18.8253004203        3.9093815560
 Br        13.2049268680       20.1310741658        2.5914897720
 Zn         3.6072565262        8.0478518724        3.8933230738
 Br         2.2970297288        9.3741614240        2.5860003637
 Zn         3.7521032590       18.8622617082       14.7164680192
 Br         2.4377237576       20.1696096941       13.3952389040
 Zn         7.9096101330       14.7378003243       14.7532509515
 Br         9.2274283815       13.4244147966       13.4391739639
 Zn         7.7242254504        3.8803953159        3.8504384727
 Br         9.0293222975        2.5603152066        2.5323572469
 Zn        18.6637091415       14.6885293853        3.9447187166
 Br        19.9693535352       13.3634675160        2.6312704190
 Zn        18.5911496519        3.9626688175       14.6679839632
 Br        19.8937893926        2.6559750770       13.3351668739
 Zn         5.7184251123        5.9914468125       16.7661699504
 Zn        16.6571771980       16.8216963912       16.8197654726
 Zn        16.4891282355        5.9517415753        5.9489279795
 Zn         5.7806648201       16.7702564731        5.9885478429
 Zn         5.6718905159        5.9504697562        5.9452055128
 Zn        16.6010339217       16.7732898354        6.0010511326
 Zn         5.8336359124       16.8138608203       16.8078081473
 Zn        16.5360639794        6.0035183497       16.7744917349
  N         3.5313205219        6.0005329539       16.7615090886
  N        14.3068512225        5.9328639950        5.9175025421
  N        18.8312443723       16.8129638982       16.8099651706
  N         7.9623947586       16.7576417121        5.9783182289
  N        18.6778510167        5.9760266577        5.9840845497
  N         7.9017612178        5.9646512107       16.7510913719
  N         3.5897524123       16.7768402661        5.9881368428
  N        14.4626556876       16.8274042132       16.8302641369
  N        16.5009258106        3.7712553193        5.9679561204
  N        16.6478046205       14.6327670192       16.8081227811
  N        16.6608304328       19.0052015540       16.8143274538
  N        16.4722266275        8.1381786004        5.9305563925
  N         5.7776135875       18.9582475272        6.0023325686
  N         5.7414680874        8.1712702587       16.7576754435
  N         5.7056503092        3.8036952805       16.7910355534
  N         5.7623923315       14.5874258561        5.9690223797
  N         5.7741784647       16.7902440848        3.7995867172
  N         5.7011298081        5.9717925433       14.5799173725
  N        16.6617860878       16.8115780203       19.0012473079
  N        16.4528066671        5.9768312889        8.1381047303
  N         5.7131836260        6.0065424988       18.9520376950
  N         5.7913004490       16.7580581486        8.1682956733
  N        16.5200029144        5.9264395917        3.7679933226
  N        16.6419953745       16.8217638944       14.6307970580
  N         5.6478981540        3.7667438103        5.9248007950
  N         5.8383230011       14.6216732169       16.8121004610
  N        16.6018190935       18.9615778546        5.9743403102
  N        16.5355985253        8.1838455250       16.8156610125
  N         5.8168004380       18.9944249709       16.7963235643
  N         5.6978612485        8.1375901898        5.9412978447
  N        16.5258397439        3.8146074751       16.7318281217
  N        16.6056222590       14.5865701447        6.0293153294
  N         3.6410983171       16.7999414272       16.7922198164
  N        14.4132468677       16.7708758290        5.9971584609
  N        18.7795021041       16.7779482649        5.9975934425
  N         8.0118637332       16.8209666346       16.8184468118
  N        18.7204885441        6.0059932219       16.7589937177
  N         7.8568610998        5.9239352363        5.9336118723
  N         3.4886694651        5.9792898989        5.9678709412
  N        14.3517260578        5.9956130435       16.7929010761
  N        16.5588198855        5.9570512685       18.9589254345
  N        16.5964167001       16.7984710587        8.1811380544
  N        16.5897955834       16.7473408110        3.8115399662
  N        16.5141233746        6.0524549078       14.5881652974
  N         5.6511150277        5.9571988482        3.7610212421
  N         5.8434627048       16.8049207974       14.6187698193
  N         5.8159023943       16.8142468265       18.9889843897
  N         5.6835126597        5.9420121787        8.1294075783
  C        11.2396856499       15.7657516963       15.7742345295
  H        11.2432884195       14.9879916710       15.0009507832
  C        11.0807247227        4.8645300678        4.8640264397
  H        11.0780709956        4.0930857968        4.0844238719
  C         0.3626931923       15.7247590335        4.9316111981
  H         0.3620384916       14.9521417238        4.1532153797
  C         0.3057305017        4.9550883990       15.6923753275
  H         0.3073000570        4.1806632911       14.9158326795
  C        11.1284502497        7.0056282867       15.6865669491
  H        11.1314169281        7.7700836933       14.9003011720
  C        11.1887631297       17.8283429097        4.9375591113
  H        11.1903459264       18.6128800107        4.1711702903
  C         0.2602338600        7.0453374537        4.9302958050
  H         0.2554663540        7.8198533969        4.1537907843
  C         0.4148504592       17.8670117040       15.7457446015
  H         0.4144520701       18.6432545598       14.9709037665
  C        11.1865338071       15.6885572061        7.0271581648
  H        11.1853780811       14.9042779854        7.7937628813
  C        11.1249656744        4.9249491089       17.8350117105
  H        11.1224409541        4.1620001395       18.6228728736
  C         0.4164601641       15.7537227377       17.8626448469
  H         0.4179776423       14.9801163341       18.6400252309
  C         0.2669328435        4.9348800637        7.0497015508
  H         0.2710711127        4.1619715413        7.8277598546
  C        11.0830230472        6.9684018711        6.9900318262
  H        11.0850057577        7.7403847066        7.7689571761
  C        11.2337656961       17.8877173085       17.8823389306
  H        11.2314357718       18.6656473735       18.6554029649
  C         0.3061483196        7.0682192602       17.8089616518
  H         0.3047680828        7.8431122469       18.5851199204
  C         0.3659404663       17.8331151122        7.0533828146
  H         0.3670594351       18.6070524050        7.8304730851
  C        15.5403581383       11.4256229928       15.7504401255
  H        14.7610895075       11.4409275377       14.9790222270
  C        15.5023425039        0.5288697296        4.9074689398
  H        14.7306024335        0.5135086741        4.1282706744
  C         4.6718184883       11.3779721300        4.8975164018
  H         3.8941363089       11.3902594227        4.1242311565
  C         4.7029347610        0.5592457029       15.7369669957
  H         3.9280528931        0.5407566018       14.9609888475
  C        15.4860300074       11.3679002863        7.0444097272
  H        14.7085766546       11.3720995083        7.8177535826
  C        15.5381229189        0.5811666182       17.8272806687
  H        14.7668874072        0.5744011698       18.6071618043
  C         4.7346276614       11.4032232741       17.8385080557
  H         3.9524036789       11.4093745425       18.6071778376
  C         4.6456904073        0.5334672926        7.0155244541
  H         3.8715501466        0.5242450766        7.7923917136
  C         6.8671649676       11.3885143812       15.7416985572
  H         7.6485493332       11.3825857705       14.9720921959
  C         6.7565984834        0.5513044109        4.8962229866
  H         7.5297045392        0.5600376942        4.1184109772
  C        17.5999038251       11.3564733821        4.9279493883
  H        18.3747313128       11.3515318391        4.1516962403
  C        17.6397694825        0.5978969286       15.6993742474
  H        18.4096394775        0.6050254091       14.9184259363
  C         6.7925626582       11.3473117048        7.0068772985
  H         7.5696914487       11.3346124088        7.7806628203
  C         6.8140318927        0.5984770538       17.8554113370
  H         7.5873476758        0.6169954287       18.6328249851
  C        17.6582214641       11.3903960325       17.8628008994
  H        18.4343900174       11.3749492441       18.6375712742
  C        17.6052877379        0.5644592250        7.0341357298
  H        18.3755909479        0.5796515631        7.8146163936
  C        15.5596838668       15.7553544143       11.4173283917
  H        14.7792448016       14.9849493923       11.4280024283
  C        15.4949355336        4.8697842520        0.5320788973
  H        14.7207133045        4.0930958594        0.5217122125
  C         4.7378445015       15.7471725253        0.5630438444
  H         3.9618329885       14.9721934534        0.5528116187
  C         4.6340877178        4.8970508717       11.3626204534
  H         3.8629700927        4.1172206101       11.3688984081
  C         6.8903792455       15.7330157979       11.3920770400
  H         7.6680702215       14.9597450066       11.3908368191
  C         6.7247581221        4.9167574078        0.5386120129
  H         7.4968902190        4.1378155531        0.5408356076
  C        17.6784304219       15.7132609046        0.5872390034
  H        18.4508232882       14.9347246532        0.5880911744
  C        17.5334185825        4.9632415892       11.3656151691
  H        18.3097448521        4.1885007502       11.3678845834
  C        15.4134862072        7.0732813533       11.3609379605
  H        14.6336671058        7.8440335052       11.3569627226
  C        15.5715894883       17.8362673363        0.5850427394
  H        14.7987188830       18.6145180174        0.5844079164
  C         4.6167506541        7.0394758608        0.5344019552
  H         3.8450053069        7.8186971182        0.5318352046
  C         4.7689480617       17.8412266353       11.3941996099
  H         3.9909059742       18.6142515683       11.3952205295
  C         6.7346606187        7.0263326651       11.3466486955
  H         7.5052795757        7.8066933182       11.3400620625
  C         6.8521569272       17.8625126403        0.5851975253
  H         7.6270231422       18.6385880855        0.5949975326
  C        17.6054075486        6.9898622516        0.5551255261
  H        18.3789949011        7.7673355361        0.5651052989
  C        17.6841215958       17.8612289897       11.3941333162
  H        18.4628805411       18.6334523348       11.3838686105
 Xe        15.9510862725       11.1048148963       11.3758988464
