     409
 i =      56, E =    -5133.6319506094
  N         2.7102361388        5.2622894279       16.0450390101
  C         1.4124617558        5.5380802918       16.3170202300
  N        13.4875128566        5.2003367619        5.2074187943
  C        12.1897381883        5.4761541160        5.4793712753
  N        19.4698357933       17.5137713074       15.9986419238
  C        20.7690965628       17.2379760663       16.2634013645
  N         8.6325359843       17.5760427410        5.2210949423
  C         9.9318031035       17.3002252748        5.4858261200
  N        19.3731167167        5.1665148901        6.7310398190
  C        20.6739704598        5.4273816633        6.4590685191
  N         8.5958885128        5.2284654052       17.5686587064
  C         9.8967484811        5.4893393646       17.2967009933
  N         2.7554443099       17.6098180094        6.7774151252
  C         1.4530940581       17.3489777888        6.5126535078
  N        13.5927887825       17.5475547519       17.5549555210
  C        12.2904383889       17.2866806088       17.2902306634
  N        15.6457953454        3.0171887668        5.2013879720
  C        15.9074289007        1.7155751696        5.4689745591
  N        15.7379420687       13.8243819363       16.0089603988
  C        15.9995612305       12.5227679844       16.2765647645
  N        15.7760213095       19.7057083929       17.5489186417
  C        16.0511096637       21.0042319416       17.2798427496
  N        15.6838808506        8.8985605864        6.7413502390
  C        15.9589456033       10.1970913513        6.4722509415
  N         6.4742470969       19.7591504629        5.2271264804
  C         6.2141123643       21.0607510313        5.4962101204
  N         6.4421719289        8.9516852081       16.0347256744
  C         6.1820524892       10.2532922968       16.3038242583
  N         6.4126506532        3.0702685052       17.5746964321
  C         6.1360789952        1.7717473581       17.3071081137
  N         6.4447298738       13.8777831296        6.7670977298
  C         6.1681595898       12.5792612304        6.4995039854
  N         4.9069498118       16.0574513277        3.0607084485
  C         5.1731939158       16.3243006069        1.7598785917
  N         4.8748687794        5.2498469251       13.8682108520
  C         5.1411418980        5.5166645211       12.5673805173
  N        17.3006696502       15.9862431623       19.7153048034
  C        17.0375028749       16.2561309478       21.0161287226
  N        17.2085201975        5.1789533753        8.9078738701
  C        16.9453430178        5.4488253184       10.2087043213
  N         4.9000672301        6.7897088179       19.7496302924
  C         5.1704708859        6.5197914077       21.0489634566
  N         4.9321435724       17.5973153344        8.9421765261
  C         5.2025533105       17.3274114976       10.2415161640
  N        17.2010204043        6.7190052573        3.0264032511
  C        16.9275611973        6.4521834993        1.7270654080
  N        17.2931764634       17.5262834800       13.8338799818
  C        17.0196828708       17.2594996782       12.5345421430
  N         4.8426770189        3.0792796257        6.7713978455
  C         5.1027747834        1.7776740630        6.5022784272
  N         4.9348156831       13.8864718124       17.5789629729
  C         5.1949410226       12.5848660450       17.3098737565
  N        17.2859207085       19.6970157316        6.7370667407
  C        17.0243399903       20.9986238090        6.4694263477
  N        17.2538517314        8.8895514294       17.5446542946
  C        16.9922413716       10.1911659592       17.2770504734
  N         4.9643415261       19.7678418872       16.0389896691
  C         5.2408782075       21.0663578482       16.3066148326
  N         4.8721959164        8.9606950761        5.2314175825
  C         5.1487491129       10.2592176604        5.4990198236
  N        17.2157688766        3.0081788823       16.0046873143
  C        16.9407259341        1.7096498703       16.2738074705
  N        17.2478460679       13.8156924972        5.1970909745
  C        16.9727903693       12.5171631110        5.4661959993
  N         2.7766278315       16.0697102930       17.5849907686
  C         1.4773623997       16.3455559359       17.3202826620
  N        13.5539054791       16.0077616961        6.7473732271
  C        12.2546392378       16.2835945633        6.4826482325
  N        19.4309496963       15.9739850778        5.1910627981
  C        20.7332949261       16.2348765210        5.4557745000
  N         8.6537204974       16.0359376179       16.0286836109
  C         9.9560721071       16.2968065152       16.2934177420
  N        19.4120017313        6.7063084343       17.5386173024
  C        20.7097708279        6.4304748105       17.2666785204
  N         8.5747010750        6.7685757565        6.7610715983
  C         9.8724770596        6.4927547584        6.4891197741
  N         2.6890536904        6.8024017850        5.2374556067
  C         1.3881946282        6.5415043044        5.5093954641
  N        13.5263990224        6.7401282293       16.0150015367
  C        12.2255398725        6.4792556443       16.2869699586
  N        15.6986179504        5.1876496545       19.7195961993
  C        15.9721400330        5.4544094803       21.0189284460
  N        15.7306956384       15.9952591102        8.9121418465
  C        16.0041984206       16.2620375157       10.2114809299
  N        15.7231933140       17.5352844476        3.0306704527
  C        15.9864162596       17.2654533388        1.7298412255
  N        15.6911235686        6.7276834747       13.8381732990
  C        15.9543221316        6.4578238902       12.5373434938
  N         6.3847809211        5.2411586146        3.0564421329
  C         6.1143451576        5.5110429997        1.7571038357
  N         6.4769260247       16.0484460115       13.8639201964
  C         6.2065122990       16.3183548787       12.5645813130
  N         6.5021254007       17.5882993207       19.7453379682
  C         6.2358266973       17.3215045206       21.0461626590
  N         6.4099732857        6.7810158459        8.9379058838
  C         6.1436995707        6.5141954682       10.2387374529
  N        19.4440788054       17.5139061952        6.7310309626
  C        20.7418480309       17.2381161376        6.4590485714
  N         8.6668505207       17.5758592274       17.5686488413
  C         9.9646258693       17.3000546584       17.2966873847
  N         2.6844830217        5.2624287920        6.7774258073
  C         1.3852168542        5.5382310965        6.5126738818
  N        13.5218275960        5.2001523563       17.5549684765
  C        12.2225616209        5.4759743494       17.2902389002
  N         2.7811983471       17.6096803428       16.0450190525
  C         1.4803401013       17.3488363975       16.3170119265
  N        13.5584750508       17.5477321399        5.2074009710
  C        12.2576162007       17.2868591430        5.4793626110
  N        19.3988725080        5.1663813476       15.9986550771
  C        20.7012175745        5.4272235897       16.2634160395
  N         8.5615728343        5.2286486165        5.2211105270
  C         9.8639244964        5.4895204639        5.4858357970
  N         6.5085653335       19.7589678012       17.5746740379
  C         6.2469291551       21.0605761317       17.3070895247
  N         6.4164124395        8.9518201510        6.7671076312
  C         6.1548025935       10.2534353933        6.4994966589
  N         6.3783369372        3.0704521985        5.2271450114
  C         6.1032571435        1.7719230042        5.4962289070
  N         6.4704812415       13.8776453501       16.0347166535
  C         6.1954199298       12.5791156413       16.3038222600
  N        15.6801029143        3.0170062235       17.5489326880
  C        15.9402626231        1.7154006903       17.2798755038
  N        15.7121899660       13.8245206710        6.7413468088
  C        15.9723135917       12.5229146362        6.4722496360
  N        15.7417091176       19.7058901521        5.2013699810
  C        16.0182833219       21.0044058915        5.4689574048
  N        15.7096337981        8.8984245803       16.0089668821
  C        15.9861925418       10.1969470882       16.2765693792
  N        17.2474075096        6.7187495075       19.7153132987
  C        16.9811554710        6.4519072116       21.0161378251
  N        17.2794874587       17.5263528537        8.9078601081
  C        17.0132158271       17.2595374671       10.2086910710
  N         4.8536867732        6.7899574032        3.0607208525
  C         5.1168593277        6.5200761352        1.7598913378
  N         4.9458272739       17.5972394290       13.8681973090
  C         5.2090225020       17.3273826721       12.5673678218
  N        17.2542885399       15.9864876411        3.0263917508
  C        16.9838985919       16.2564171686        1.7270537450
  N        17.2222149092        5.1788828553       13.8338946926
  C        16.9518013532        5.4487856107       12.5345561065
  N         4.9533266839       16.0572091205       19.7496207570
  C         5.2268101039       16.3240079955       21.0489531597
  N         4.8611830102        5.2499185142        8.9421892155
  C         5.1346759413        5.5167013523       10.2415283104
  N        17.3116774024       19.6968808373       16.0046669632
  C        17.0515888507       20.9984807530       16.2737962646
  N        17.2195324112        8.8897340265        5.1970959065
  C        16.9594257758       10.1913408030        5.4662007790
  N         4.8684279701        3.0791408687       16.0390076425
  C         5.1300185555        1.7775273874       16.3066371371
  N         4.9005033338       13.8866544267        5.2314118229
  C         5.1621227860       12.5850404427        5.4990102176
  N        17.1900116323        3.0083169130        6.7370837993
  C        16.9134817430        1.7097955395        6.4694532121
  N        17.2821650403       13.8155087727       17.5446483629
  C        17.0056054034       12.5169875375       17.2770506610
  N         4.9385897426       19.7679778576        6.7713780499
  C         5.2136313906       21.0665020714        6.5022552522
  N         4.9065101246        8.9605134860       17.5789701685
  C         5.1815719397       10.2590439044       17.3098740222
  N        19.3776872005        6.7064889010        5.1910746543
  C        20.6769479312        6.4306450244        5.4557858952
  N         8.6004579933        6.7684367042       16.0286934452
  C         9.8997255436        6.4926241032       16.2934356328
  N         2.7233671310        6.8022198957       17.5850019641
  C         1.4210167638        6.5413309514       17.3202889493
  N        13.5006449221        6.7402672187        6.7473825625
  C        12.1982938552        6.4793878033        6.4826559738
  N         2.7423131904       16.0698993953        5.2374406159
  C         1.4445388862       16.3457247222        5.5093872247
  N        13.5796585501       16.0076247794       16.0149930634
  C        12.2818838800       16.2834455466       16.2869477720
  N        19.4652652765       15.9738012017       17.5386097631
  C        20.7661189340       16.2347026043       17.2666734185
  N         8.6279644757       16.0360757030        6.7610645666
  C         9.9288248973       16.2969599796        6.4891109183
  N         6.4557437010       17.5885498371        3.0564277192
  C         6.1822284061       17.3217848540        1.7570900325
  N         6.4236631739        6.7809451556       13.8639312340
  C         6.1501621754        6.5141621444       12.5645926969
  N         6.4311627168        5.2409145661       19.7453513874
  C         6.1679468102        5.5107541854       21.0461758060
  N         6.4632356548       16.0485209467        8.9378978439
  C         6.2000518632       16.3183924826       10.2387286678
  N        15.7695757960       17.5350377381       19.7195837707
  C        16.0400244459       17.2651652437       21.0189164017
  N        15.6774352896        6.7277550854        8.9121510253
  C        15.9478552861        6.4578550745       10.2114908803
  N        15.6522371467        5.1878959728        3.0306837135
  C        15.9185249579        5.4547010087        1.7298537830
  N        15.7443843628       15.9951843420       13.8381613754
  C        16.0106591381       16.2620059999       12.5373310798
 Zn        14.3626078645       14.6269968095       14.6366831362
 Br        13.0411972463       13.3243024802       13.3300655581
 Zn        14.2704261702        3.8197170953        3.8291190864
 Br        12.9490461130        2.5170054345        2.5224842702
 Zn         3.5251769279       14.6892336755        3.8591440813
 Br         2.2037503631       13.3865693325        2.5525091399
 Zn         3.4931001843        3.8816691401       14.6666969849
 Br         2.1716731692        2.5789574452       13.3601096862
 Zn         7.8098599743        8.1491112146       14.6548018591
 Br         9.1239886782        9.4518455727       13.3408984334
 Zn         7.8419808188       18.9566930787        3.8472046658
 Br         9.1560738861       20.2594553806        2.5332903033
 Zn        18.5872041735        8.0872028768        3.8171807992
 Br        19.9013599023        9.3899012213        2.5032656593
 Zn        18.6793594593       18.8944302836       14.6247009419
 Br        19.9935095136       20.1971873526       13.3108389887
 Zn         7.8291979043       14.6645411056        8.1393790987
 Br         9.1355494757       13.3467479566        9.4460006910
 Zn         7.7971653485        3.8569319245       18.9469489974
 Br         9.1034802839        2.5391272663       20.2535986547
 Zn        18.6666207104       14.6022167409       18.9169091313
 Br        19.9729932842       13.2844646647       20.2235535744
 Zn        18.5744652883        3.7949815440        8.1093979002
 Br        19.8808428341        2.4771758484        9.4159839183
 Zn        14.3070606017        8.1117631735        8.1212781132
 Br        13.0079932836        9.4295187908        9.4351797465
 Zn        14.3991546094       18.9190344929       18.9288346258
 Br        13.1001288061       20.2368121184       20.2427575831
 Zn         3.5296912311        8.1737581402       18.9588736443
 Br         2.2306129709        9.4914782375       20.2728030264
 Zn         3.5617676006       18.9812967909        8.1513463554
 Br         2.2626894605       20.2990804044        9.4652121931
 Zn        14.3445032745       14.6270944302        8.1212731815
 Br        13.0303752280       13.3243613232        9.4351776010
 Zn        14.3123822760        3.8194862340       18.9288440924
 Br        12.9982901909        2.5167416839       20.2427761181
 Zn         3.5671330618       14.6890028530       18.9588681686
 Br         2.2529945661       13.3863058477       20.2728009315
 Zn         3.4749955451        3.8817668798        8.1513561039
 Br         2.1608511318        2.5790166681        9.4652307916
 Zn         7.7917520774        8.1492056934        8.1393842743
 Br         9.1131633673        9.4519015017        9.4460028128
 Zn         7.8839516346       18.9564769216       18.9469400615
 Br         9.2053213480       20.2591949766       20.2535808693
 Zn        18.6291750502        8.0869867019       18.9169149043
 Br        19.9506070959        9.3896410363       20.2235562117
 Zn        18.6612517647       18.8945245983        8.1093883885
 Br        19.9826841584       20.1972426619        9.4159658188
 Zn        14.3251654173        8.1116685727       14.6366917320
 Br        13.0188149328        9.4294633698       13.3300715654
 Zn        14.3571980241       18.9192512772        3.8290954109
 Br        13.0508840890       20.2370733222        2.5224632142
 Zn         3.4877347771        8.1739748728        3.8591530718
 Br         2.1813679353        9.4917393965        2.5525151339
 Zn         3.5798721005       18.9812023914       14.6666729054
 Br         2.2735110867       20.2990250503       13.3600883720
 Zn         7.8473065927       14.6644426667       14.6547928762
 Br         9.1463751096       13.3466882007       13.3408921523
 Zn         7.7551948255        3.8571627978        3.8472281195
 Br         9.0542332235        2.5393914423        2.5333109541
 Zn        18.6246502735       14.6024476180        3.8171715184
 Br        19.9237460254       13.2847283988        2.5032593761
 Zn        18.5925734771        3.7948829468       14.6247247735
 Br        19.8916688589        2.4771164016       13.3108596921
 Zn         5.6574629723        6.0153771399       16.8068133815
 Zn        16.5269183384       16.7606527002       16.7767650856
 Zn        16.4347721396        5.9534252608        5.9692532747
 Zn         5.6895400026       16.8229237220        5.9992777210
 Zn         5.6274285990        6.0155366332        5.9992897577
 Zn        16.4968837211       16.7608122839        5.9692411566
 Zn         5.7195746069       16.8227640124       16.8068014209
 Zn        16.4648067149        5.9532655988       16.7767770449
  N         3.4552119729        6.0280264851       16.8129519266
  N        14.2324917980        5.9660565296        5.9753501765
  N        18.7291346638       16.7480100110       16.7706580101
  N         7.8918342628       16.8102979669        5.9931277346
  N        18.6369861698        5.9407576926        5.9631214676
  N         7.8597572177        6.0026910152       16.8007236836
  N         3.4872891308       16.8355985658        6.0053912021
  N        14.3246367060       16.7733451514       16.7829212551
  N        16.4221354384        3.7511660280        5.9692460926
  N        16.5142968298       14.5583613267       16.7768025238
  N        16.5395912879       18.9628762416       16.7767794109
  N        16.4474616169        8.1557283375        5.9692234929
  N         5.7021840434       19.0251455041        5.9992624808
  N         5.6700889225        8.2176806432       16.8068396553
  N         5.6448009981        3.8131179436       16.8068324417
  N         5.6768565366       14.6206346977        5.9992578790
  N         5.6834117728       16.8229758913        3.7969905984
  N         5.6513181357        6.0153851032       14.6044965268
  N        16.5330545543       16.7606359226       18.9790166554
  N        16.4409260614        5.9533663935        8.1715842384
  N         5.6635702507        6.0153303964       19.0090630744
  N         5.6956296964       16.8229205230        8.2016089787
  N        16.4286755706        5.9534443429        3.7669661184
  N        16.5208351621       16.7607187400       14.5744461523
  N         5.6147587997        3.8132790974        5.9992785769
  N         5.7068900086       14.6204745737       16.8068359934
  N        16.5095617359       18.9630344388        5.9692277698
  N        16.4774999745        8.1555690696       16.7768087837
  N         5.7322238895       19.0249861186       16.8068175201
  N         5.6400622241        8.2178385791        5.9992616308
  N        16.4521682461        3.7510059193       16.7767977607
  N        16.4842581678       14.5585225851        5.9692152130
  N         3.5173234266       16.8354378294       16.8129390106
  N        14.2946032406       16.7735025146        5.9753350749
  N        18.6990983113       16.7481749944        5.9631127071
  N         7.9218695338       16.8101443983       16.8007146101
  N        18.6670212195        5.9405993232       16.7706769967
  N         7.8297209030        6.0028539548        5.9931453916
  N         3.4251788825        6.0281798645        6.0053968951
  N        14.2625262309        5.9658937180       16.7829290672
  N        16.4709454743        5.9532249079       18.9790270859
  N        16.5030408000       16.7608138746        8.1715725494
  N        16.4907811809       16.7608629321        3.7669536042
  N        16.4587175441        5.9532692945       14.5744595726
  N         5.6212958215        6.0155564752        3.7970042027
  N         5.7134264937       16.8228286392       14.6044841978
  N         5.7256874488       16.8227505457       19.0090514739
  N         5.6335228739        6.0154813013        8.2016194216
  C        11.1143991473       15.7531157125       15.7531658287
  H        11.1078611883       14.9863189631       14.9863460893
  C        11.0222524680        4.9458207259        4.9455904850
  H        11.0157145106        4.1790246399        4.1787678930
  C         0.2770618481       15.8154119526        4.9755841243
  H         0.2705241323       15.0486122177        4.2087670086
  C         0.2449845561        5.0077501307       15.7832347227
  H         0.2384468085        4.2409508125       15.0164171948
  C        11.0642264574        7.0229596763       15.7531798381
  H        11.0665025108        7.7897821309       14.9863611736
  C        11.0963034468       17.8305729434        4.9455782393
  H        11.0985794591       18.5973918541        4.1787538363
  C         0.2268888311        7.0852108468        4.9756040389
  H         0.2291651377        7.8520302326        4.2087819549
  C         0.3190359173       17.8925477910       15.7832236297
  H         0.3213121892       18.6593686610       15.0164030180
  C        11.0901381439       15.7532507682        7.0228958262
  H        11.0878625018       14.9864324324        7.7897185987
  C        11.0580611701        4.9456379404       17.8304978747
  H        11.0557854471        4.1788135762       18.5973168297
  C         0.3128706390       15.8152239274       17.8605477278
  H         0.3105952550       15.0484012228       18.6273664987
  C         0.2207234752        5.0078832659        7.0529216116
  H         0.2184480790        4.2410641082        7.8197439403
  C        11.0399641682        7.0230862019        7.0228970076
  H        11.0465023292        7.7898807640        7.7897191995
  C        11.1321108703       17.8303783185       17.8304780991
  H        11.1386490795       18.5971767749       18.5972985995
  C         0.2626962870        7.0850146373       17.8605503822
  H         0.2692347398        7.8518151301       18.6273670155
  C         0.2947735633       17.8926692064        7.0529071023
  H         0.3013120463       18.6594675630        7.8197258675
  C        15.4543732118       11.3629517058       15.7410370864
  H        14.6854354307       11.3673701824       14.9763491045
  C        15.3622526784        0.5557667999        4.9334307071
  H        14.5933115176        0.5601856188        4.1687457865
  C         4.6169304567       11.4252232441        4.9634845193
  H         3.8479917410       11.4296416973        4.1987952931
  C         4.5848299286        0.6177189718       15.7711061182
  H         3.8158901751        0.6221378015       15.0064198220
  C        15.4301216386       11.3630811346        7.0107745232
  H        14.6654427612       11.3674769346        7.7797216407
  C        15.3980610044        0.5555766582       17.8183964284
  H        14.6333840039        0.5599727854       18.5873457267
  C         4.6527437504       11.4250331767       17.8483973037
  H         3.8880634812       11.4294290326       18.6173451936
  C         4.5605768746        0.6178484329        7.0408012569
  H         3.7958971551        0.6222445094        7.8097478252
  C         6.7242510463       11.4131256419       15.7653059682
  H         7.4889287835       11.4087303594       14.9963577359
  C         6.6320806114        0.6059408385        4.9577010296
  H         7.3967602126        0.6015457392        4.1887543275
  C        17.5016199991       11.3511736295        4.9276743037
  H        18.2662994037       11.3467782883        4.1587255613
  C        17.4695717219        0.5436690394       15.7353003135
  H        18.2342479986        0.5392739767       14.9663503302
  C         6.6999844340       11.4132540046        7.0350275987
  H         7.4689219056       11.4088358173        7.7997161691
  C         6.6678862476        0.6057496232       17.8426551574
  H         7.4368280144        0.6013317160       18.6073397334
  C        17.5374277729       11.3509824263       17.8125824492
  H        18.3063671434       11.3465642900       18.5772712966
  C        17.4453003240        0.5437974600        7.0049883023
  H        18.2142414298        0.5393794752        7.7696734986
  C        15.4673275646       15.7280959070       11.3758989881
  H        14.6961150542       14.9656922798       11.3780311367
  C        15.3752055139        4.9207745209        0.5684295143
  H        14.6039906563        4.1583729532        0.5705620915
  C         4.6298598211       15.7903891161        0.5984543214
  H         3.8586462308       15.0279862938        0.6005868438
  C         4.5978090331        4.9827535609       11.4059474028
  H         3.8265945530        4.2203497533       11.4080795683
  C         6.7372093409       15.7782754449       11.4001631316
  H         7.4996090441       15.0070589267       11.3980332738
  C         6.6450413427        4.9709598064        0.5926929443
  H         7.4074382325        4.1997402004        0.5905627529
  C        17.5146073658       15.7163448690        0.5626443265
  H        18.2770038518       14.9451248890        0.5605140887
  C        17.4825033372        4.9087073848       11.3701383498
  H        18.2449018917        4.1374875780       11.3680084873
  C        15.4171608784        6.9979372143       11.3759089308
  H        14.6547632026        7.7691557452       11.3780393862
  C        15.4492545251       17.8055724109        0.5684162924
  H        14.6868571560       18.5767915499        0.5705475548
  C         4.5796902494        7.0601863262        0.5984649026
  H         3.8172932859        7.8314058514        0.6005961962
  C         4.6718628150       17.8675012378       11.4059337217
  H         3.9094607389       18.6387175650       11.4080640959
  C         6.6870290345        7.0481044563       11.4001719511
  H         7.4582421539        7.8105077259       11.3980402645
  C         6.7190860254       17.8557419546        0.5926785544
  H         7.4903012614       18.6181433999        0.5905469099
  C        17.4644222180        6.9861369110        0.5626537847
  H        18.2356374854        7.7485382895        0.5605222496
  C        17.5565500554       17.7934472470       11.3701234604
  H        18.3277645314       18.5558513279       11.3679917175
 Xe        21.2990542063       10.7488761585       10.7791455483
