     409
 i =      56, E =    -5133.8855216221
  N         2.9643302392        5.2198969048       16.0125351937
  C         1.6441034257        5.4834380616       16.2749718419
  N        13.7631151702        5.1633662853        5.1674621828
  C        12.4468685038        5.4386155299        5.4418753417
  N        19.6412499353       17.5504542231       15.9953124062
  C        20.9590164025       17.2950720766       16.2793494163
  N         8.8156210382       17.5816045388        5.2299839534
  C        10.1329844996       17.2959623377        5.4848796090
  N        19.6329955672        5.1714277166        6.7297385963
  C        20.9501272057        5.4584625828        6.4751792575
  N         8.8183085606        5.2304891447       17.5810047615
  C        10.1359110115        5.4848370851       17.2957755035
  N         2.9462772432       17.5699783000        6.7742297660
  C         1.6311543235       17.2917646770        6.4983730668
  N        13.7848480285       17.5712175280       17.5722796155
  C        12.4644777785       17.3083269894       17.3089536637
  N        15.9199808251        3.0058506794        5.1625394970
  C        16.1912712997        1.6881564311        5.4340124958
  N        15.9111787617       13.8463830912       16.0013637871
  C        16.1827476741       12.5277375923       16.2671050172
  N        15.9430776074       19.7100339645       17.5554948440
  C        16.2086641778       21.0268463190       17.2783715809
  N        15.9265561547        8.8702418498        6.7165656911
  C        16.1969319589       10.1878878407        6.4480696266
  N         6.6509180696       19.7370005549        5.2225190655
  C         6.3737949916       21.0544763042        5.4848357747
  N         6.6631650776        8.9351195318       16.0285260458
  C         6.3916953782       10.2520832934       16.3006289897
  N         6.6709084733        3.0751137038       17.5800225670
  C         6.4011068572        1.7566003051       17.3138895794
  N         6.6596357804       13.8673496362        6.7886758873
  C         6.3902577516       12.5504993433        6.5148980375
  N         5.1178071505       16.0239850680        3.0681709309
  C         5.3867994793       16.2997122001        1.7513440939
  N         5.1168226093        5.2331769138       13.8667935927
  C         5.3840755430        5.5036625205       12.5491662365
  N        17.4923758848       15.9931772106       19.7081474146
  C        17.2205757202       16.2587286809       21.0266836622
  N        17.4783160381        5.1526581035        8.8728130963
  C        17.2122977772        5.4272034274       10.1903931510
  N         5.0919690755        6.7734878001       19.7330489866
  C         5.3561712419        6.4976650634       21.0509437436
  N         5.1018592752       17.5847169842        8.9294676527
  C         5.3727586051       17.3173698597       10.2478218500
  N        17.4801738867        6.7117802698        3.0117007627
  C        17.2097937486        6.4452361387        1.6936010809
  N        17.4763836750       17.5454407811       13.8436286094
  C        17.2030952030       17.2746235543       12.5266919053
  N         5.0881652099        3.0571393212        6.7613060493
  C         5.3547430288        1.7379336091        6.4927334684
  N         5.1088943403       13.8893269900       17.5955035437
  C         5.3766531598       12.5717444450       17.3219075470
  N        17.4788801248       19.6924351914        6.7310238029
  C        17.2093784522       21.0091816521        6.4560867092
  N        17.4761956831        8.8872750496       17.5411908259
  C        17.2037832241       10.2048223029       17.2736894133
  N         5.1157613974       19.7536849566       16.0400228353
  C         5.3864169729       21.0720763764       16.3059753225
  N         5.1116503218        8.9173483176        5.2046390065
  C         5.3783628992       10.2336830806        5.4839347941
  N        17.4886645054        3.0249373047       15.9862860312
  C        17.2184547335        1.7070386095       16.2558708318
  N        17.4895199807       13.8290095493        5.1746929151
  C        17.2163269810       12.5104033608        5.4384760236
  N         2.9582810577       16.0455582932       17.5998500566
  C         1.6404695522       16.3044998319       17.3194324837
  N        13.7722735420       15.9700010117        6.7292433247
  C        12.4542407094       16.2508574027        6.4710613967
  N        19.6443032416       15.9895275222        5.1872623554
  C        20.9599274878       16.2635219080        5.4660989951
  N         8.8154028659       16.0413676954       16.0397967383
  C        10.1344838278       16.3057919349       16.3052531161
  N        19.6334077989        6.7447892515       17.5433488574
  C        20.9531430524        6.4838335999       17.2772919382
  N         8.8190701003        6.7476080578        6.7419361399
  C        10.1340804923        6.4684847874        6.4671398125
  N         2.9466955595        6.7780626906        5.2178871437
  C         1.6295540420        6.4992721758        5.4810248718
  N        13.7761788363        6.7271661584       15.9702838194
  C        12.4579836569        6.4694795920       16.2509570439
  N        15.9250563503        5.1741652967       19.6906618952
  C        16.1948217819        5.4393434501       21.0092495957
  N        15.9165680451       15.9831375753        8.8884920145
  C        16.1838886417       16.2567042484       10.2065877837
  N        15.9255767383       17.5360639373        3.0263902026
  C        16.1990781975       17.2686412658        1.7088513941
  N        15.9413660648        6.7317256324       13.8272347865
  C        16.2074113729        6.4554633110       12.5102309112
  N         6.6370424204        5.2010130590        3.0475283519
  C         6.3662706646        5.4734564613        1.7308475875
  N         6.6626034935       16.0418431065       13.8883609054
  C         6.3902678666       16.3078249975       12.5706740062
  N         6.6709250090       17.5992441171       19.7550974391
  C         6.4011994588       17.3256232048       21.0726495933
  N         6.6742581806        6.7723269388        8.9079517234
  C         6.4007565775        6.5111433557       10.2263220678
  N        19.6306477414       17.5416196979        6.7461727823
  C        20.9503678096       17.2769879355        6.4839238364
  N         8.8262331378       17.5970401461       17.5953277418
  C        10.1425862491       17.3215830614       17.3208413578
  N         2.9490438223        5.2243983866        6.7747534983
  C         1.6309489134        5.4845097175        6.4974744355
  N        13.7741133856        5.1822812266       17.5363980239
  C        12.4568718056        5.4611111797       17.2737856288
  N         2.9578509623       17.6007811631       16.0442683486
  C         1.6401954904       17.3200083780       16.3036287991
  N        13.7711069804       17.5351672448        5.1835369401
  C        12.4537592588       17.2731532784        5.4621688961
  N        19.6469634339        5.1865765508       15.9906179404
  C        20.9626090712        5.4664656271       16.2633623773
  N         8.8046743433        5.1908672459        5.1861650300
  C        10.1249518372        5.4526376069        5.4514983863
  N         6.6703641507       19.7570319677       17.5969637512
  C         6.4010517389       21.0745894024       17.3228325272
  N         6.6700468378        8.9121044937        6.7580004854
  C         6.3946112536       10.2301896090        6.4990693635
  N         6.6394308077        3.0514963253        5.2012375798
  C         6.3683300983        1.7351310009        5.4749565575
  N         6.6628768233       13.8909583463       16.0388208632
  C         6.3914791254       12.5732096914       16.3054672755
  N        15.9288193126        3.0252588701       17.5381257368
  C        16.2016160680        1.7076572657       17.2705110823
  N        15.9357677818       13.8255094308        6.7318096062
  C        16.2023131637       12.5085249972        6.4558149937
  N        15.9223723140       19.6881352410        5.1760754718
  C        16.1927767098       21.0065320607        5.4414153804
  N        15.9191277759        8.8872327866       15.9867567031
  C        16.1857958657       10.2053768168       16.2603126021
  N        17.4813196581        6.7291965804       19.6957076213
  C        17.2112270098        6.4541954254       21.0124181399
  N        17.4734712177       17.5379216743        8.8880532131
  C        17.2016379040       17.2703303492       10.2056092789
  N         5.0844889230        6.7600660081        3.0509539222
  C         5.3520805956        6.4906105244        1.7324795231
  N         5.1078827814       17.5976703532       13.8872147272
  C         5.3750666437       17.3238635230       12.5695389728
  N        17.4853613353       15.9840425581        3.0264664362
  C        17.2158896841       16.2539547591        1.7084993424
  N        17.4928659571        5.1725270723       13.8305579785
  C        17.2199710755        5.4367067989       12.5119662425
  N         5.1164294349       16.0423216719       19.7516982714
  C         5.3865031877       16.3088477443       21.0700114535
  N         5.1172211088        5.2183299006        8.9128896119
  C         5.3850951984        5.4954709136       10.2292739496
  N        17.4921204984       19.7066692030       15.9936005004
  C        17.2213072092       21.0252501517       16.2597813684
  N        17.4769228300        8.8714190825        5.1560359796
  C        17.2095752327       10.1889079870        5.4294667837
  N         5.1201717679        3.0707744152       16.0192942028
  C         5.3880237633        1.7536828555       16.2955939821
  N         5.1106780835       13.8716821011        5.2280364754
  C         5.3774251952       12.5536729194        5.4966509830
  N        17.4809692899        3.0081027331        6.7133269884
  C        17.2096441745        1.6901596740        6.4470866315
  N        17.4771845856       13.8431626317       17.5472634976
  C        17.2041910978       12.5260213666       17.2771253583
  N         5.0912950072       19.7376931978        6.7743965659
  C         5.3569664907       21.0556807554        6.4993672931
  N         5.1054232230        8.9315279225       17.5837957884
  C         5.3756297342       10.2500149298       17.3162566728
  N        19.6314506886        6.7271932574        5.1738401072
  C        20.9489691840        6.4739091889        5.4592465173
  N         8.8187112428        6.7749723289       16.0136641627
  C        10.1364050301        6.4930382265       16.2725355057
  N         2.9490372872        6.7773919666       17.5662088468
  C         1.6339256332        6.5004435560       17.2892321456
  N        13.7744402132        6.7182229496        6.7233318632
  C        12.4550194201        6.4539207094        6.4577576241
  N         2.9615911374       16.0172026588        5.2156167201
  C         1.6414231901       16.2780857072        5.4807624427
  N        13.7695797466       16.0151804767       16.0167482824
  C        12.4548412586       16.2925331007       16.2935028793
  N        19.6416030080       15.9954100534       17.5511629641
  C        20.9592673029       16.2795999331       17.2952894279
  N         8.8149845849       16.0143364086        6.7744182882
  C        10.1327894313       16.2729219699        6.4932481271
  N         6.6690841462       17.5839821915        3.0733641655
  C         6.4001979016       17.3176449111        1.7546512840
  N         6.6654047427        6.7943658577       13.8645947156
  C         6.3965835245        6.5222949524       12.5472264771
  N         6.6515121158        5.2218489214       19.7331791139
  C         6.3731695457        5.4833646661       21.0504523181
  N         6.6595632050       16.0292479156        8.9324337279
  C         6.3888634267       16.3017444353       10.2495123834
  N        15.9430894849       17.5547720543       19.7111461606
  C        16.2078202993       17.2771961960       21.0280170804
  N        15.9300994091        6.7156616917        8.8720581329
  C        16.2011153604        6.4473146322       10.1896153916
  N        15.9197534397        5.1600818584        3.0086879667
  C        16.1917935281        5.4317079723        1.6910655190
  N        15.9109829229       15.9989843988       13.8478066013
  C        16.1820303784       16.2642402038       12.5289957837
 Zn        14.6130453323       14.7161537649       14.7177995042
 Br        13.2885941578       13.4062634918       13.4087764657
 Zn        14.6210883451        3.8714971510        3.8752502344
 Br        13.3037558592        2.5588314435        2.5610233436
 Zn         3.8306433611       14.7261233936        3.9267906283
 Br         2.5168874445       13.4133349879        2.6092043302
 Zn         3.8342851006        3.9331593828       14.7214670081
 Br         2.5215825230        2.6151000574       13.4079679165
 Zn         7.9560937101        8.0781381530       14.7300507790
 Br         9.2919298366        9.3890099990       13.4315720093
 Zn         7.9547182382       18.8786538047        3.9424852673
 Br         9.2715837507       20.1894224724        2.6260980307
 Zn        18.7715381286        8.0071689064        3.8690427813
 Br        20.0852259098        9.3221271836        2.5538940282
 Zn        18.7756819233       18.8345541976       14.7006535407
 Br        20.0901214619       20.1439909333       13.3797166834
 Zn         7.9517517667       14.7293776738        8.0745083410
 Br         9.2779829527       13.4245248719        9.3884393694
 Zn         7.9560071231        3.9423766164       18.8766364511
 Br         9.2712599307        2.6255257552       20.1885108339
 Zn        18.7763806549       14.7009113747       18.8356811230
 Br        20.0916503848       13.3806632655       20.1451398126
 Zn        18.7726259484        3.8638957716        8.0081880375
 Br        20.0880780925        2.5503961497        9.3228078497
 Zn        14.6407082526        8.0090047821        8.0115665389
 Br        13.3307568907        9.3253685027        9.3295423908
 Zn        14.6589485975       18.8598238211       18.8609884871
 Br        13.3554260476       20.1799244674       20.1806102054
 Zn         3.8009358224        8.0658319459       18.8690790810
 Br         2.4862155133        9.3801268734       20.1830759761
 Zn         3.7985184724       18.8715733998        8.0644411108
 Br         2.4840143953       20.1856174603        9.3790115937
 Zn        14.6384340876       14.6782227863        8.0197165408
 Br        13.3261533704       13.3637295208        9.3374088318
 Zn        14.6308588964        3.8879030860       18.8263457706
 Br        13.3154270910        2.5743790232       20.1413117903
 Zn         3.8227265933       14.7549572307       18.8888146007
 Br         2.5078717494       13.4401400377       20.2044592927
 Zn         3.8123500578        3.9318760703        8.0619153692
 Br         2.5006187259        2.6211678965        9.3838349595
 Zn         7.9707674009        8.0515372687        8.0385163747
 Br         9.3139605312        9.3532755540        9.3377529099
 Zn         7.9617329434       18.8893792146       18.8873115380
 Br         9.2826920575       20.2016732964       20.1991519080
 Zn        18.7678542242        8.0288140406       18.8352228314
 Br        20.0779894275        9.3453433452       20.1526180032
 Zn        18.7656664178       18.8327865933        8.0315073160
 Br        20.0756107696       20.1505890961        9.3474345404
 Zn        14.6441584012        8.0186917695       14.6802266488
 Br        13.3326485314        9.3365787502       13.3649560481
 Zn        14.6273886218       18.8250401107        3.8889152704
 Br        13.3130731634       20.1402551793        2.5748885192
 Zn         3.8049190403        8.0622484857        3.9171246695
 Br         2.4918794471        9.3834196797        2.6085478380
 Zn         3.8212381075       18.8901284222       14.7534731219
 Br         2.5058199864       20.2057954323       13.4392140413
 Zn         7.9532559403       14.7527285284       14.7490840195
 Br         9.2665818510       13.4360287509       13.4331816277
 Zn         7.9293653080        3.9014363091        3.8995137440
 Br         9.2303980141        2.5804218362        2.5787053912
 Zn        18.7832540085       14.7005862760        3.8906959374
 Br        20.1008016930       13.3893799599        2.5742812256
 Zn        18.7862955338        3.8891352186       14.7025457965
 Br        20.1041324049        2.5721818408       13.3920851958
 Zn         5.8908405235        6.0065204256       16.8035447086
 Zn        16.7103631863       16.7740070672       16.7747408549
 Zn        16.7050314866        5.9396612122        5.9421988938
 Zn         5.8879339816       16.8084599887        6.0051046756
 Zn         5.8854805725        5.9905854881        5.9806087670
 Zn        16.7078049661       16.7614262054        5.9549841648
 Zn         5.8920862089       16.8247362459       16.8231782396
 Zn        16.7102488522        5.9539387305       16.7632546526
  N         3.7035116045        6.0017246294       16.7930857889
  N        14.5156831208        5.9381595891        5.9431274527
  N        18.8947686872       16.7653759101       16.7658449363
  N         8.0687738355       16.8050905256        6.0090764079
  N        18.8856195087        5.9402209904        5.9433712168
  N         8.0720280786        6.0099385034       16.8042088279
  N         3.7007113611       16.7979479562        5.9973253527
  N        14.5240499742       16.7895279228       16.7910965483
  N        16.7005481600        3.7536364827        5.9369729269
  N        16.6947515118       14.5912963132       16.7753993497
  N        16.7189320097       18.9614030041       16.7775573636
  N        16.7013064890        8.1239301888        5.9353962506
  N         5.8745871447       18.9907040966        6.0020943274
  N         5.8845766772        8.1870047856       16.8049215292
  N         5.8960764760        3.8197787862       16.7972649857
  N         5.8861333849       14.6169099653        6.0090789424
  N         5.8934137459       16.8017394826        3.8176714506
  N         5.8918342990        6.0136740775       14.6130482975
  N        16.7195252714       16.7772806167       18.9626785248
  N        16.7031602373        5.9328689953        8.1256386905
  N         5.8760316937        6.0017369557       18.9864063564
  N         5.8806573362       16.8057096341        8.1847084558
  N        16.6996692592        5.9350246726        3.7567678193
  N        16.6944118592       16.7735952970       14.5922481518
  N         5.8655108986        3.8012337947        5.9801110605
  N         5.8870166681       14.6372008222       16.8190469183
  N        16.7002410666       18.9435425833        5.9558797757
  N        16.6996169873        8.1404921983       16.7622406674
  N         5.8925557663       19.0088060684       16.8203972334
  N         5.8933910153        8.1682399873        5.9761634940
  N        16.7084097128        3.7716360796       16.7617547570
  N        16.7140995679       14.5740486797        5.9564010255
  N         3.7049113808       16.8285201577       16.8272090716
  N        14.5185948080       16.7481610331        5.9513211570
  N        18.8907181615       16.7637533844        5.9625105394
  N         8.0741673775       16.8218500984       16.8196829901
  N        18.8934418334        5.9608726684       16.7658016478
  N         8.0654136823        5.9737449056        5.9663629739
  N         3.6948558242        6.0053558065        5.9993542797
  N        14.5219924211        5.9495227922       16.7491771027
  N        16.7030634679        5.9540728596       18.9464028478
  N        16.6966650383       16.7589258947        8.1415158322
  N        16.7048389845       16.7594765020        3.7729451329
  N        16.7185770641        5.9552236251       14.5757210277
  N         5.8621725830        5.9800933937        3.7960263974
  N         5.8867649211       16.8218258674       14.6348906142
  N         5.8934363161       16.8224281216       19.0068277320
  N         5.8971916622        5.9913139389        8.1636627827
  C        11.2889630925       15.7492870548       15.7497810236
  H        11.2802060068       14.9736153508       14.9744348057
  C        11.2804464094        4.8957696701        4.8970451145
  H        11.2722331540        4.1204242285        4.1213424229
  C         0.4873262921       15.7217095736        4.9231582233
  H         0.4981379880       14.9477251137        4.1462679199
  C         0.4898855473        4.9248675682       15.7198573042
  H         0.5004823708        4.1481928749       14.9456482474
  C        11.2976617797        7.0261685454       15.7074356950
  H        11.2980892583        7.7963556873       14.9266530810
  C        11.2934605559       17.8376827803        4.9271835465
  H        11.2935606136       18.6183268297        4.1568167692
  C         0.4684044890        7.0376558015        4.9215986433
  H         0.4670757073        7.8135979375        4.1465206159
  C         0.4794768001       17.8580704315       15.7425823854
  H         0.4793354630       18.6343050871       14.9677698700
  C        11.2935470387       15.7077852799        7.0274033749
  H        11.2934896990       14.9272964892        7.7979097354
  C        11.2960529403        4.9268658564       17.8380851946
  H        11.2955944941        4.1568243961       18.6190523937
  C         0.4800657525       15.7433509571       17.8580958323
  H         0.4804097661       14.9688158161       18.6346055069
  C         0.4713686969        4.9235157037        7.0379903224
  H         0.4726137513        4.1492341808        7.8147477664
  C        11.3001358597        7.0104140612        7.0123356574
  H        11.3085533835        7.7857037413        7.7879615795
  C        11.3093401194       17.8647367113       17.8645720935
  H        11.3183794921       18.6403576649       18.6399213110
  C         0.4670037290        7.0432078742       17.8317211778
  H         0.4563120656        7.8197362714       18.6062484231
  C         0.4640907906       17.8324823590        7.0425516442
  H         0.4531724626       18.6065238574        7.8195544187
  C        15.6320193461       11.3673905807       15.7167835982
  H        14.8533530414       11.3685906746       14.9444569903
  C        15.6414022562        0.5253739516        4.8889317068
  H        14.8641695766        0.5216523454        4.1151137919
  C         4.8275856387       11.3963970423        4.9406916905
  H         4.0528013374       11.4007498488        4.1644592591
  C         4.8381003828        0.5909090363       15.7506376736
  H         4.0629760290        0.5876366630       14.9746919771
  C        15.6507777642       11.3476428348        7.0027373701
  H        14.8772441580       11.3467118851        7.7802855824
  C        15.6554452564        0.5474928139       17.8241268710
  H        14.8805260927        0.5474319132       18.6002546666
  C         4.8266458734       11.4098469497       17.8689285859
  H         4.0518325948       11.4084024050       18.6451461903
  C         4.8056268199        0.5778877722        7.0451394786
  H         4.0306456581        0.5792650525        7.8211955863
  C         6.9408053554       11.4138369466       15.7528296753
  H         7.7171691921       11.4161452277       14.9782544269
  C         6.9192518876        0.5737178550        4.9286725022
  H         7.6935163884        0.5721553034        4.1519139367
  C        17.7609950125       11.3502607259        4.8824810919
  H        18.5348163240       11.3508505137        4.1053144698
  C        17.7684107102        0.5458042795       15.7068152855
  H        18.5426274127        0.5456035395       14.9299977133
  C         6.9410061843       11.3877721157        7.0585929042
  H         7.7172189502       11.3835121906        7.8333185283
  C         6.9494074987        0.5975732132       17.8691964246
  H         7.7232312787        0.6010264282       18.6463461874
  C        17.7556912870       11.3645406135       17.8229127355
  H        18.5346456541       11.3631105185       18.5950006821
  C        17.7600931517        0.5316444163        7.0004552919
  H        18.5360916579        0.5347789452        7.7754651408
  C        15.6309359424       15.7133096863       11.3690568195
  H        14.8524604640       14.9407966462       11.3710217678
  C        15.6429400274        4.8865928497        0.5277779914
  H        14.8659268879        4.1125628071        0.5233526108
  C         4.8374163674       15.7541574233        0.5886751345
  H         4.0621513925       14.9783298581        0.5853313652
  C         4.8347981585        4.9495368885       11.3909019519
  H         4.0604525866        4.1728302835       11.3934447975
  C         6.9388678779       15.7546565656       11.4112167106
  H         7.7152244824       14.9800612366       11.4133957221
  C         6.9180227866        4.9270865274        0.5699184079
  H         7.6925303432        4.1505641773        0.5688721703
  C        17.7667192569       15.7052948835        0.5474621054
  H        18.5409158457       14.9284548599        0.5475722167
  C        17.7634856378        4.8797969038       11.3516936697
  H        18.5362791800        4.1016079094       11.3521834422
  C        15.6563186286        7.0030592856       11.3494832208
  H        14.8837369674        7.7815541704       11.3488128923
  C        15.6536979363       17.8225174522        0.5484452821
  H        14.8787379619       18.5985981320        0.5480044945
  C         4.8033222245        7.0428959247        0.5724259115
  H         4.0279463891        7.8185814364        0.5733388087
  C         4.8243144648       17.8703417588       11.4077705614
  H         4.0493839234       18.6464402188       11.4064359199
  C         6.9472081221        7.0682936569       11.3852172409
  H         7.7232868194        7.8431169165       11.3826941202
  C         6.9492212876       17.8723331472        0.5956735676
  H         7.7232605499       18.6492500666        0.5991865607
  C        17.7609221086        6.9986610456        0.5353394106
  H        18.5366960434        7.7738857523        0.5390362025
  C        17.7539244798       17.8201361861       11.3648390961
  H        18.5325487186       18.5925596560       11.3627512392
 Xe         6.3061692929       11.3284264918       11.3693956243
