     409
 i =      56, E =    -5133.8855022285
  N         2.7974584023        5.2119352663       16.0053943192
  C         1.4780135658        5.4747804230       16.2746743097
  N        13.5831250053        5.1716819798        5.1885081218
  C        12.2665103186        5.4491090026        5.4588750061
  N        19.5301831911       17.5563790888       16.0089648865
  C        20.8489834055       17.2991092355       16.2857140025
  N         8.6920651074       17.5824894742        5.2133306239
  C        10.0087432575       17.3005379999        5.4760307370
  N        19.4571313025        5.1750039387        6.7421212305
  C        20.7737385186        5.4581879001        6.4801505463
  N         8.6543068884        5.2206526073       17.5726930623
  C         9.9724438498        5.4811029125       17.2961515989
  N         2.8190030190       17.5897433189        6.7595073419
  C         1.5032523333       17.3127861056        6.4854130113
  N        13.6735736331       17.5509944295       17.5735584192
  C        12.3542218635       17.2909211786       17.3027495983
  N        15.7409586358        3.0101630917        5.1922110720
  C        16.0217527228        1.6937264761        5.4611131990
  N        15.8152913374       13.8435260220       16.0033726576
  C        16.0800670702       12.5250155983       16.2729972854
  N        15.8204767903       19.6965834850       17.5679659752
  C        16.0735388580       21.0157025348       17.2897867203
  N        15.7523606407        8.8808503396        6.7450257309
  C        16.0364786951       10.1971019360        6.4812735321
  N         6.5315737860       19.7490781160        5.2133642759
  C         6.2434900711       21.0651028357        5.4750129256
  N         6.5096794377        8.9263006736       16.0105103829
  C         6.2512408089       10.2450723760       16.2856184718
  N         6.5046946650        3.0716056830       17.5853144777
  C         6.2461295039        1.7516011437       17.3153466791
  N         6.5218951876       13.8759352319        6.7526086458
  C         6.2431848845       12.5603724418        6.4805827573
  N         4.9886687830       16.0502675564        3.0467381082
  C         5.2661043286       16.3197445871        1.7307873021
  N         4.9505914320        5.2088956602       13.8620976861
  C         5.2139760054        5.4813991878       12.5437879783
  N        17.3824938850       15.9795871838       19.7204794099
  C        17.1078045990       16.2449337164       21.0388762955
  N        17.3037310828        5.1749096295        8.8931635118
  C        17.0396746660        5.4483627128       10.2112208888
  N         4.9324013509        6.7840348626       19.7197709077
  C         5.1956851854        6.5126733492       21.0390669870
  N         4.9808166913       17.5861587078        8.9140213920
  C         5.2578685193       17.3192053883       10.2307218559
  N        17.2956849434        6.7154346820        3.0324715115
  C        17.0288685714        6.4434366180        1.7148107529
  N        17.3782689174       17.5419489764       13.8536316957
  C        17.1079548352       17.2687567991       12.5366468315
  N         4.9165371298        3.0562768392        6.7499040843
  C         5.1974974879        1.7397808832        6.4824321282
  N         4.9986862398       13.8908028789       17.5815362264
  C         5.2576194624       12.5716132954       17.3082594128
  N        17.3439485091       19.7031182367        6.7422883293
  C        17.0612828809       21.0190446637        6.4744257556
  N        17.3333384389        8.8795279414       17.5702035279
  C        17.0771496840       10.1987747001       17.2943556120
  N         4.9996697510       19.7438639194       16.0206515721
  C         5.2564063906       21.0627732586       16.2955013032
  N         4.9293290278        8.9294806923        5.1945860400
  C         5.2094249243       10.2459395681        5.4634808079
  N        17.3190214571        3.0234891477       15.9935966909
  C        17.0596070601        1.7039673536       16.2651544786
  N        17.3574226847       13.8292244915        5.2045000933
  C        17.0766293475       12.5128423529        5.4724114387
  N         2.8533606040       16.0461287214       17.5846098788
  C         1.5346640680       16.3064560929       17.3110247831
  N        13.6438341191       15.9900236832        6.7493249149
  C        12.3266428896       16.2664667201        6.4823211568
  N        19.5153035431       15.9941178757        5.1933311886
  C        20.8308659692       16.2766437612        5.4632877959
  N         8.7073985588       16.0308138987       16.0172091386
  C        10.0264326726       16.2934316105       16.2871621231
  N        19.4719179994        6.7271012171       17.5699080508
  C        20.7906713982        6.4699094661       17.2942628664
  N         8.6350593266        6.7596745534        6.7449838210
  C         9.9510420487        6.4807749328        6.4751242748
  N         2.7664836956        6.7759740218        5.2060312546
  C         1.4499698650        6.4968398426        5.4735004103
  N        13.6158094606        6.7453410591       15.9995209428
  C        12.2968253803        6.4818239417       16.2715363665
  N        15.7544058993        5.1605587452       19.7103401180
  C        16.0196585239        5.4285463414       21.0299853879
  N        15.8036771568       15.9900682933        8.9023195536
  C        16.0824119591       16.2550440906       10.2189311316
  N        15.8053530246       17.5286259899        3.0344674547
  C        16.0814385102       17.2584386685        1.7181657769
  N        15.7722056973        6.7434864321       13.8521594726
  C        16.0366551824        6.4708371723       12.5341457360
  N         6.4673706654        5.2191739611        3.0401206996
  C         6.2013564349        5.4922236826        1.7226872596
  N         6.5548197480       16.0348666028       13.8660342679
  C         6.2820994914       16.3048916275       12.5489200857
  N         6.5676710263       17.6003306721       19.7351825277
  C         6.2942674607       17.3321175994       21.0530556939
  N         6.4856202792        6.7686224410        8.9012499912
  C         6.2194741676        6.4989186012       10.2196986510
  N        19.5025932202       17.5535232618        6.7453334792
  C        20.8223013344       17.2932659263        6.4780489890
  N         8.7160314717       17.5884285990       17.5724732191
  C        10.0325598836       17.3093607334       17.3029289000
  N         2.7730235744        5.2200966864        6.7626985767
  C         1.4544607583        5.4816560989        6.4898953748
  N        13.6100898993        5.1849633880       17.5505999145
  C        12.2934100794        5.4646393826       17.2857559638
  N         2.8470660571       17.5966933529       16.0242160994
  C         1.5303658619       17.3197531789       16.2930791832
  N        13.6474454811       17.5410165577        5.1892873024
  C        12.3294353185       17.2806991977        5.4653452222
  N        19.4797292478        5.1762768322       16.0092570021
  C        20.7963135373        5.4559505320       16.2768496651
  N         8.6253438832        5.2049457094        5.1887856874
  C         9.9447999365        5.4652826695        5.4594280778
  N         6.5565149228       19.7531504802       17.5762013320
  C         6.2722823026       21.0696776806       17.3112201232
  N         6.4877466168        8.9201810445        6.7487966234
  C         6.2257884906       10.2392537788        6.4787063147
  N         6.4682962183        3.0647578622        5.1907571024
  C         6.2116247542        1.7458970501        5.4653143770
  N         6.5506931794       13.8825112582       16.0223638826
  C         6.2716963886       12.5662607489       16.2910717965
  N        15.7602901998        3.0139299412       17.5467677394
  C        16.0433766950        1.6974664767       17.2805072302
  N        15.7979851578       13.8379156114        6.7576506234
  C        16.0597385492       12.5187397147        6.4871645155
  N        15.7923128526       19.6921500043        5.1825001023
  C        16.0474655247       21.0117546930        5.4569668569
  N        15.7831955303        8.8886622121       16.0095631254
  C        16.0638066452       10.2044289464       16.2765186199
  N        17.3119188273        6.7143353444       19.7181200336
  C        17.0367272370        6.4428092559       21.0341858078
  N        17.3600335335       17.5440755293        8.8975172980
  C        17.0990401659       17.2695798673       10.2159059919
  N         4.9118213549        6.7746294571        3.0391572188
  C         5.1855034809        6.5076366967        1.7212029530
  N         5.0018600195       17.5926629163       13.8690497575
  C         5.2681228220       17.3221065667       12.5511081521
  N        17.3606944505       15.9714531364        3.0404242463
  C        17.0960735941       16.2414959311        1.7213193761
  N        17.3245763969        5.1845694774       13.8492997699
  C        17.0501484240        5.4529065631       12.5321497803
  N         5.0094201006       16.0482817273       19.7329531277
  C         5.2763408007       16.3188666086       21.0505905979
  N         4.9312565752        5.2114941885        8.9060625106
  C         5.2048603928        5.4821777196       10.2228851903
  N        17.3692898999       19.7056696990       16.0052172364
  C        17.0858645529       21.0220756067       16.2707782414
  N        17.3059701146        8.8727182443        5.1869849706
  C        17.0511290077       10.1915220312        5.4645930565
  N         4.9528043237        3.0590531392       16.0263214277
  C         5.2321099309        1.7435871476       16.2981711823
  N         4.9706832413       13.8878584535        5.1925429670
  C         5.2295567077       12.5679417433        5.4629896390
  N        17.2997121965        3.0203168357        6.7460058423
  C        17.0383048885        1.7008160447        6.4761860717
  N        17.3761612348       13.8369313173       17.5542719829
  C        17.0975547059       12.5201185600       17.2870537823
  N         4.9716429081       19.7393711614        6.7655134793
  C         5.2263070814       21.0584988859        6.4893211171
  N         4.9514572904        8.9332146050       17.5642001913
  C         5.2347689619       10.2499729702       17.3006678739
  N        19.4509709128        6.7262484855        5.1838727390
  C        20.7694015964        6.4718616271        5.4628247614
  N         8.6578068982        6.7697404807       16.0103472316
  C         9.9750246178        6.4938563986       16.2775763281
  N         2.7879669627        6.7737876146       17.5550695447
  C         1.4717309446        6.4930475093       17.2878303322
  N        13.5912590684        6.7294919284        6.7426909055
  C        12.2721939802        6.4657424867        6.4737547319
  N         2.8308050017       16.0423145125        5.1960955071
  C         1.5115368885       16.3008113941        5.4662290168
  N        13.6636447511       16.0004766060       16.0132649332
  C        12.3476586373       16.2776521958       16.2849038653
  N        19.5364750548       15.9991682768       17.5633617504
  C        20.8533073719       16.2831927490       17.3013418903
  N         8.6863688838       16.0191011791        6.7613767888
  C        10.0051287468       16.2814639503        6.4883564419
  N         6.5485283444       17.6014917778        3.0548054588
  C         6.2846144017       17.3326146093        1.7352396776
  N         6.5011226911        6.7696129348       13.8574491468
  C         6.2271051360        6.4995455340       12.5406441560
  N         6.4922109138        5.2326991809       19.7261155659
  C         6.2132507995        5.4988326002       21.0423948297
  N         6.5349100533       16.0282770463        8.9099983023
  C         6.2721527160       16.3020932273       10.2281450788
  N        15.8309130213       17.5382195827       19.7204824466
  C        16.0944046739       17.2626976153       21.0377558446
  N        15.7490133947        6.7311955687        8.8959521424
  C        16.0252419941        6.4652670692       10.2131153899
  N        15.7377550234        5.1614097672        3.0305223273
  C        16.0117098794        5.4291291627        1.7125746985
  N        15.8188744789       15.9901106640       13.8573721686
  C        16.0902268329       16.2551179789       12.5393998042
 Zn        14.5169149169       14.7087832400       14.7176413230
 Br        13.1985480552       13.3963963288       13.4036243125
 Zn        14.4447663043        3.8729833636        3.8989656397
 Br        13.1265333248        2.5579754837        2.5882344949
 Zn         3.6887236285       14.7605457490        3.8963403854
 Br         2.3741290494       13.4504440027        2.5770919792
 Zn         3.6668245203        3.9095779116       14.7233566207
 Br         2.3473833992        2.5951862534       13.4138793273
 Zn         7.7956963590        8.0607849521       14.7158204296
 Br         9.1151877257        9.3684683521       13.3989028007
 Zn         7.8383460717       18.8877908942        3.9318878868
 Br         9.1554136446       20.2022674923        2.6189388869
 Zn        18.5902054319        8.0093406764        3.8892830595
 Br        19.9045495138        9.3202484187        2.5706325072
 Zn        18.6640937658       18.8412371155       14.7141223361
 Br        19.9766722791       20.1554625420       13.3967096378
 Zn         7.8177114102       14.7244290804        8.0500654983
 Br         9.1288194492       13.4042787414        9.3617134829
 Zn         7.7911349551        3.9428899674       18.8769835786
 Br         9.1027834769        2.6280189554       20.1944471014
 Zn        18.6729148330       14.6961274404       18.8440606420
 Br        19.9863444003       13.3745959110       20.1544451918
 Zn        18.5987928602        3.8851866290        8.0325216020
 Br        19.9097658203        2.5672407263        9.3477735207
 Zn        14.4542611823        8.0192217099        8.0347610544
 Br        13.1325659948        9.3339287442        9.3434599659
 Zn        14.5422077769       18.8330023514       18.8708864543
 Br        13.2312217525       20.1514074340       20.1858378444
 Zn         3.6421733291        8.0711176208       18.8432194068
 Br         2.3329554901        9.3931433016       20.1565966266
 Zn         3.6804273788       18.8766778469        8.0585102119
 Br         2.3690843395       20.1914200913        9.3754097569
 Zn        14.5041684907       14.7045026827        8.0486570950
 Br        13.1808861567       13.3946304271        9.3605822721
 Zn        14.4599852901        3.8786097382       18.8330547962
 Br        13.1428871118        2.5627390855       20.1445603183
 Zn         3.7170870684       14.7588142657       18.8781173284
 Br         2.3989649446       13.4467114827       20.1926306935
 Zn         3.6322617300        3.9202307873        8.0516736761
 Br         2.3179602736        2.6079414244        9.3678572372
 Zn         7.7827902894        8.0565173618        8.0386886180
 Br         9.1029555774        9.3656310113        9.3524703125
 Zn         7.8554013656       18.8879863933       18.8650948003
 Br         9.1777479335       20.2030479651       20.1719160872
 Zn        18.6097297525        8.0084339694       18.8723717426
 Br        19.9268423957        9.3169869022       20.1899340593
 Zn        18.6404322029       18.8443668648        8.0345938043
 Br        19.9553593725       20.1619147094        9.3464601006
 Zn        14.4886986384        8.0414423339       14.7149269477
 Br        13.1688930978        9.3565681439       13.4045528408
 Zn        14.5074345362       18.8238014090        3.8892863822
 Br        13.1974737407       20.1360458718        2.5681447540
 Zn         3.6256801251        8.0675660650        3.9071380089
 Br         2.3121646657        9.3888309110        2.5984275195
 Zn         3.7087385284       18.8829004275       14.7256017363
 Br         2.3927960224       20.1981222370       13.4132238741
 Zn         7.8430287966       14.7371967116       14.7246475020
 Br         9.1527361817       13.4182427248       13.4102282259
 Zn         7.7549949868        3.9215611856        3.8951311142
 Br         9.0666251296        2.6044175997        2.5793644029
 Zn        18.6574611638       14.6860890314        3.9102304219
 Br        19.9697702133       13.3662638498        2.5995589782
 Zn        18.6158091534        3.8913380366       14.7111038435
 Br        19.9285558881        2.5763441682       13.3941267397
 Zn         5.7264810635        6.0010844637       16.7874250913
 Zn        16.6047918965       16.7693491678       16.7822178669
 Zn        16.5129441871        5.9462538582        5.9591673202
 Zn         5.7559358494       16.8179073325        5.9870053985
 Zn         5.6922089136        5.9979105590        5.9697266280
 Zn        16.5768981970       16.7651027077        5.9633547453
 Zn         5.7858996881       16.8213881187       16.8007735593
 Zn        16.5463947470        5.9508160304       16.7791036665
  N         3.5394244496        5.9972425247       16.7799507205
  N        14.3335585441        5.9472570371        5.9652023323
  N        18.7868959733       16.7707187482       16.7818845346
  N         7.9425234893       16.8060550611        5.9900516890
  N        18.7066637664        5.9432219365        5.9582038404
  N         7.9093900408        5.9992716100       16.7939361558
  N         3.5717785140       16.8205191402        5.9784492736
  N        14.4156992030       16.7716945338       16.7931542753
  N        16.5156664375        3.7616537115        5.9693254665
  N        16.5990404025       14.5867550327       16.7784973132
  N        16.6025394203       18.9544408583       16.7902428143
  N        16.5216070338        8.1300291892        5.9620002165
  N         5.7601228771       18.9978613667        5.9937134149
  N         5.7241824780        8.1833163869       16.7840867739
  N         5.7238655426        3.8123270973       16.8050605895
  N         5.7512996923       14.6288464386        5.9730042969
  N         5.7649367172       16.8256735441        3.7976351999
  N         5.7286225698        5.9886829618       14.6064628471
  N        16.6094780465       16.7619727407       18.9734024019
  N        16.5231752545        5.9509155902        8.1475808400
  N         5.7166278375        6.0096089568       18.9761372892
  N         5.7542231054       16.8054694979        8.1655619709
  N        16.5147757040        5.9397667443        3.7780143919
  N        16.5976663109       16.7687364281       14.6021134977
  N         5.6868853979        3.8075488156        5.9683799997
  N         5.7797100950       14.6335722403       16.8032200731
  N        16.5751793553       18.9508220471        5.9602965821
  N        16.5518086578        8.1370895761       16.7921777188
  N         5.7851615088       19.0021802838       16.7953293695
  N         5.7039221297        8.1784985896        5.9721411125
  N        16.5341043616        3.7652494059       16.7688381191
  N        16.5820371339       14.5800979911        5.9814594330
  N         3.5971870346       16.8253435516       16.8056029479
  N        14.3925089857       16.7617252732        5.9669749337
  N        18.7622483481       16.7684251975        5.9691110035
  N         7.9655173047       16.8138132038       16.7945721075
  N        18.7291496907        5.9460087280       16.7918521578
  N         7.8831317546        5.9871479892        5.9664684376
  N         3.5159520471        6.0020468570        5.9854816183
  N        14.3596719567        5.9607833968       16.7733984794
  N        16.5357737071        5.9385758078       18.9673671639
  N        16.5768289292       16.7700418782        8.1527825813
  N        16.5803750089       16.7503451796        3.7838127117
  N        16.5508156267        5.9649546678       14.5974354465
  N         5.6878591049        5.9953617349        3.7864301847
  N         5.7799946166       16.8141037543       14.6145008285
  N         5.7898882644       16.8236474573       18.9871091943
  N         5.7063760161        5.9899705754        8.1568362977
  C        11.1829502371       15.7363962925       15.7358377739
  H        11.1766242908       14.9615446152       14.9596441861
  C        11.1017890555        4.9070859791        4.9099946158
  H        11.0958433577        4.1312787525        4.1348104538
  C         0.3573475493       15.7401394944        4.9139150865
  H         0.3678431950       14.9661149838        4.1369937273
  C         0.3209916197        4.9163159510       15.7257109649
  H         0.3274983310        4.1413031320       14.9497834889
  C        11.1373590199        7.0369042597       15.7243848020
  H        11.1391959529        7.8116203928       14.9481243191
  C        11.1712307239       17.8407766666        4.9212310525
  H        11.1748403040       18.6169357793        4.1463062659
  C         0.2863925299        7.0349567312        4.9191529729
  H         0.2807722484        7.8109722384        4.1441353408
  C         0.3666430292       17.8597672164       15.7403718917
  H         0.3616815536       18.6356063528       14.9651777468
  C        11.1637774831       15.7235325481        7.0342889135
  H        11.1605839852       14.9472435720        7.8089805223
  C        11.1315084797        4.9234787181       17.8410451679
  H        11.1295150864        4.1484083943       18.6170855620
  C         0.3770530228       15.7469190043       17.8575820727
  H         0.3824352969       14.9731201578       18.6347924797
  C         0.2971550228        4.9221159416        7.0368646198
  H         0.3023415595        4.1486426765        7.8144565948
  C        11.1153744108        7.0229091157        7.0241179110
  H        11.1212821539        7.7987926482        7.7992930400
  C        11.1977106271       17.8492498262       17.8529620461
  H        11.2047089158       18.6242196701       18.6289704242
  C         0.3073917400        7.0321798776       17.8398069058
  H         0.3006853989        7.8088394467       18.6142808327
  C         0.3366971259       17.8526243378        7.0317822718
  H         0.3267146461       18.6278814565        7.8075609154
  C        15.5230407355       11.3676572855       15.7240442258
  H        14.7470109437       11.3720154011       14.9491190692
  C        15.4844660172        0.5278018568        4.9100794844
  H        14.7085624741        0.5194897814        4.1349758133
  C         4.6702781399       11.4114964730        4.9133039812
  H         3.8952173369       11.4185282178        4.1374054289
  C         4.6937339846        0.5782637239       15.7479926796
  H         3.9173980024        0.5703031050       14.9732406616
  C        15.4993081880       11.3618617394        7.0346344516
  H        14.7227436101       11.3678853636        7.8089078690
  C        15.5089247756        0.5318393244       17.8346943245
  H        14.7338138165        0.5235795929       18.6106062644
  C         4.6972822988       11.4143155057       17.8548055417
  H         3.9220951622       11.4198867768       18.6306288290
  C         4.6612927005        0.5741942546        7.0346075274
  H         3.8851545286        0.5656105817        7.8094668607
  C         6.8114064926       11.4022232059       15.7389431012
  H         7.5866579670       11.3969669965       14.9631667852
  C         6.7761417545        0.5905024450        4.9193704638
  H         7.5506228351        0.5991390785        4.1428133899
  C        17.6139837963       11.3481281551        4.9192979469
  H        18.3887755565       11.3414781424        4.1430533080
  C        17.6205276246        0.5476552563       15.7167359211
  H        18.3940170639        0.5553080226       14.9392582114
  C         6.7838156889       11.3953882175        7.0295586873
  H         7.5589927752       11.3886667965        7.8054228599
  C         6.8074199541        0.5956605233       17.8642124757
  H         7.5816699166        0.6039879332       18.6409071192
  C        17.6375094815       11.3563511117       17.8401206924
  H        18.4127524674       11.3516343079       18.6159023490
  C        17.5980694441        0.5447414063        7.0259920724
  H        18.3723479484        0.5524818945        7.8026881018
  C        15.5369318840       15.7045761007       11.3809388303
  H        14.7593343386       14.9312153025       11.3838747050
  C        15.4652021499        4.8800204416        0.5495413544
  H        14.6879897116        4.1062096735        0.5468984964
  C         4.7200083042       15.7709638648        0.5684844523
  H         3.9421320641       14.9977611506        0.5647326034
  C         4.6599992712        4.9316139640       11.3852739365
  H         3.8849419909        4.1556055891       11.3883843754
  C         6.8267401919       15.7533700072       11.3869074931
  H         7.6010867348       14.9766753698       11.3843411615
  C         6.7569372039        4.9456073694        0.5637837825
  H         7.5322433230        4.1697891833        0.5657665278
  C        17.6501381307       15.6920153798        0.5618814405
  H        18.4239125320       14.9147720755        0.5648503731
  C        17.5934870450        4.8996209282       11.3703300389
  H        18.3668233638        4.1218956703       11.3682455356
  C        15.4824075464        7.0191525676       11.3749213527
  H        14.7073928251        7.7950436992       11.3771221061
  C        15.5388577970       17.8108707173        0.5559587274
  H        14.7648322204       18.5878732470        0.5525660257
  C         4.6401999047        7.0591319470        0.5589558093
  H         3.8643093190        7.8342336658        0.5573497849
  C         4.7146913211       17.8721107825       11.3926001688
  H         3.9407299466       18.6492094534       11.3952206530
  C         6.7719613295        7.0501070442       11.3782544617
  H         7.5466057486        7.8265020894       11.3754320973
  C         6.8407388502       17.8805269886        0.5762230173
  H         7.6181651013       18.6540875966        0.5794437162
  C        17.5833440414        6.9918310719        0.5561673617
  H        18.3598728940        7.7663623804        0.5587730022
  C        17.6555466281       17.8168996701       11.3743714988
  H        18.4321293447       18.5913420480       11.3715029691
 Xe        16.1967336892       11.2791514273       11.3055914499
