     409
 i =      56, E =    -5133.8847203505
  N         2.9691151573        5.2119579830       16.0434479587
  C         1.6494143243        5.4779213162       16.3059342753
  N        13.7449564067        5.1933897421        5.1933905182
  C        12.4288958234        5.4682772780        5.4682780246
  N        19.6822200983       17.5670706953       16.0111664319
  C        20.9997370494       17.3090441412       16.2932125687
  N         8.8274326296       17.5971443592        5.2313514953
  C        10.1452428206       17.3176796868        5.4923136337
  N        19.6126105146        5.1861527093        6.7409384532
  C        20.9300357004        5.4687942634        6.4843011119
  N         8.8274323066        5.2313522237       17.5971451209
  C        10.1452425301        5.4923149537       17.3176811033
  N         2.9565762781       17.5937758549        6.7728833470
  C         1.6407839066       17.3194504795        6.4957023736
  N        13.8238942790       17.5692074469       17.5692084943
  C        12.5047617074       17.3035661299       17.3035666453
  N        15.8958680910        3.0299532787        5.1858483162
  C        16.1716070952        1.7126692767        5.4542953889
  N        15.9673583509       13.8571753672       16.0080677036
  C        16.2339250877       12.5389707017       16.2778429332
  N        15.9752776069       19.7148231560       17.5619099692
  C        16.2365001303       21.0328868740       17.2872761779
  N        15.9118897132        8.8977753239        6.7429219216
  C        16.1876333517       10.2145266652        6.4734180450
  N         6.6657999411       19.7572327733        5.2353220718
  C         6.3857004049       21.0736221536        5.5028038546
  N         6.6663918028        8.9295559275       16.0294840604
  C         6.4031341538       10.2481000601       16.3014541200
  N         6.6816909532        3.0728147974       17.6089556147
  C         6.4207767853        1.7533102170       17.3378361712
  N         6.6756129520       13.8866935989        6.7637541677
  C         6.4005407217       12.5698035903        6.4961613464
  N         5.1278676070       16.0524881802        3.0645325256
  C         5.4053180301       16.3221153754        1.7484301868
  N         5.1127443493        5.2160094184       13.8907048917
  C         5.3781465934        5.4873639852       12.5722448322
  N        17.5279388689       16.0036074957       19.7189283804
  C        17.2507740861       16.2703391861       21.0361024559
  N        17.4647022171        5.1843129384        8.8923059992
  C        17.2016606521        5.4561473197       10.2109496047
  N         5.1092678868        6.7901612225       19.7494124101
  C         5.3702864541        6.5188634316       21.0687909673
  N         5.1132730147       17.5883741388        8.9348534091
  C         5.3898086528       17.3196366033       10.2518375816
  N        17.4548925451        6.7386453800        3.0346045260
  C        17.1888326018        6.4685350533        1.7165279144
  N        17.5266345114       17.5611173248       13.8526134405
  C        17.2509278140       17.2923638356       12.5355814071
  N         5.0778922597        3.0683760880        6.7852151100
  C         5.3537483800        1.7508988905        6.5168391689
  N         5.1440055595       13.8922252861       17.5972759721
  C         5.4050349083       12.5734422251       17.3239355868
  N        17.4808244898       19.7203367180        6.7359377921
  C        17.2020832557       21.0361569017        6.4670947179
  N        17.4984804047        8.8952851643       17.5691750300
  C        17.2375955170       10.2141029661       17.2957956115
  N         5.1561982728       19.7497135857       16.0459300768
  C         5.4199447332       21.0677408672       16.3188677317
  N         5.0868641513        8.9337354304        5.2322437902
  C         5.3664590424       10.2510070357        5.4950586556
  N        17.4989589009        3.0363815909       15.9962092033
  C        17.2357389741        1.7175178432       16.2668589688
  N        17.4936440474       13.8495313726        5.1932076584
  C        17.2157985440       12.5324753923        5.4599852600
  N         2.9976702405       16.0501805037       17.6047091015
  C         1.6801607461       16.3124500375       17.3279460986
  N        13.7851253991       16.0079471674        6.7552388585
  C        12.4670845509       16.2857108798        6.4931002499
  N        19.6521948192       16.0126010157        5.1926642243
  C        20.9679772735       16.2903645842        5.4670440662
  N         8.8574998602       16.0320131412       16.0320117867
  C        10.1768127062       16.2974826856       16.2974820600
  N        19.6397064599        6.7437134213       17.5735046597
  C        20.9593836369        6.4809147487       17.3079352711
  N         8.7991686366        6.7693753227        6.7693752560
  C        10.1149782320        6.4943430204        6.4943432667
  N         2.9278721714        6.7839499289        5.2286018266
  C         1.6103441434        6.5055619122        5.4898992353
  N        13.7851251644        6.7552399782       16.0079485661
  C        12.4670843009        6.4931018056       16.2857126480
  N        15.9274585997        5.1790897691       19.7113238865
  C        16.1869066423        5.4511394999       21.0308720123
  N        15.9473065892       16.0096062225        8.9016293046
  C        16.2236109941       16.2786101632       10.2181123442
  N        15.9412476684       17.5495197555        3.0300737031
  C        16.2194428531       17.2819369143        1.7135252483
  N        15.9377855836        6.7494305484       13.8541967115
  C        16.2006105260        6.4762739012       12.5358070715
  N         6.6290764262        5.2255224179        3.0726131139
  C         6.3670670334        5.4988836056        1.7545262831
  N         6.6958980743       16.0377155627       13.8859076977
  C         6.4179030699       16.3054968861       12.5693915017
  N         6.7156761740       17.5982440762       19.7536505958
  C         6.4374870387       17.3328601710       21.0711945660
  N         6.6551259848        6.7758928997        8.9311978438
  C         6.3911148656        6.5014952801       10.2489314974
  N        19.6397068744       17.5735039965        6.7437133513
  C        20.9593840047       17.3079346914        6.4809143773
  N         8.8675798055       17.5880649334       17.5880638352
  C        10.1836047489       17.3132360925       17.3132355312
  N         2.9278723037        5.2286014690        6.7839499305
  C         1.6103442044        5.4898988163        6.5055621237
  N        13.7842013579        5.1918456939       17.5562532276
  C        12.4666754453        5.4737293712       17.2978119427
  N         2.9976701856       17.6047097194       16.0501802274
  C         1.6801607166       17.3279466631       16.3124497179
  N        13.7842016988       17.5562520449        5.1918447744
  C        12.4666757473       17.2978103409        5.4737279748
  N        19.6521946112        5.1926639282       16.0126020110
  C        20.9679770357        5.4670441706       16.2903654230
  N         8.7878812087        5.2142519254        5.2142519128
  C        10.1074869832        5.4787506281        5.4787509648
  N         6.7156754602       19.7536513527       17.5982439321
  C         6.4374859243       21.0711953356       17.3328604845
  N         6.6551262029        8.9311978797        6.7758924464
  C         6.3911151697       10.2489315009        6.5014945450
  N         6.6290769121        3.0726133204        5.2255221291
  C         6.3670675633        1.7545264309        5.4988832112
  N         6.6958991174       13.8859089141       16.0377145929
  C         6.4179042405       12.5693927157       16.3054963333
  N        15.9412465166        3.0300735879       17.5495199096
  C        16.2194415825        1.7135251220       17.2819369376
  N        15.9377860262       13.8541959361        6.7494307900
  C        16.2006108787       12.5358062555        6.4762741878
  N        15.9274589360       19.7113234043        5.1790899614
  C        16.1869069875       21.0308715073        5.4511397965
  N        15.9473066258        8.9016293913       16.0096065680
  C        16.2236110434       10.2181124294       16.2786104587
  N        17.4808238525        6.7359379275       19.7203373448
  C        17.2020827357        6.4670945879       21.0361575060
  N        17.4984805087       17.5691745532        8.8952850343
  C        17.2375955116       17.2957952705       10.2141028430
  N         5.0778917633        6.7852153350        3.0683760437
  C         5.3537478772        6.5168395696        1.7508988265
  N         5.1440047165       17.5972770011       13.8922239263
  C         5.4050338267       17.3239361848       12.5734408687
  N        17.4989595585       15.9962085616        3.0363816664
  C        17.2357399328       16.2668586415        1.7175179272
  N        17.4936436138        5.1932074444       13.8495322906
  C        17.2157981580        5.4599849503       12.5324762989
  N         5.1561990378       16.0459302099       19.7497127627
  C         5.4199459096       16.3188673754       21.0677400184
  N         5.0868641737        5.2322440119        8.9337355519
  C         5.3664588613        5.4950592521       10.2510071393
  N        17.5279379704       19.7189282967       16.0036075295
  C        17.2507730289       21.0361023121       16.2703392178
  N        17.4647022246        8.8923049756        5.1843133232
  C        17.2016607820       10.2109486106        5.4561476948
  N         5.1278663237        3.0645335165       16.0524888631
  C         5.4053165546        1.7484311325       16.3221161294
  N         5.1127445690       13.8907048048        5.2160083094
  C         5.3781468589       12.5722447718        5.4873629628
  N        17.4548926136        3.0346040018        6.7386463584
  C        17.1888328206        1.7165273754        6.4685357677
  N        17.5266348004       13.8526135646       17.5611172166
  C        17.2509280293       12.5355815470       17.2923638699
  N         5.1092682157       19.7494124212        6.7901602984
  C         5.3702869466       21.0687909713        6.5188627002
  N         5.1132735134        8.9348547841       17.5883742659
  C         5.3898094554       10.2518388922       17.3196366234
  N        19.6126104749        6.7409377963        5.1861534058
  C        20.9300356542        6.4843005794        5.4687949140
  N         8.8273321406        6.7853794453       16.0394401179
  C        10.1451576604        6.5080182385       16.3019184867
  N         2.9565759182        6.7728850808       17.5937758207
  C         1.6407835609        6.4957036790       17.3194506997
  N        13.7552917395        6.7497563051        6.7497570398
  C        12.4360647741        6.4840079230        6.4840085943
  N         2.9691153640       16.0434475973        5.2119566101
  C         1.6494145416       16.3059337792        5.4779202908
  N        13.8141812311       16.0136977247       16.0136985977
  C        12.4980682256       16.2879613454       16.2879618220
  N        19.6822201841       16.0111664921       17.5670701329
  C        20.9997371010       16.2932127467       17.3090436319
  N         8.8273323570       16.0394390773        6.7853784275
  C        10.1451578951       16.3019168655        6.5080167194
  N         6.6816920091       17.6089551327        3.0728139559
  C         6.4207781143       17.3378355493        1.7533093476
  N         6.6756127257        6.7637552340       13.8866935961
  C         6.4005404111        6.4961624044       12.5698035840
  N         6.6657993299        5.2353227465       19.7572327419
  C         6.3856997845        5.5028044478       21.0736220956
  N         6.6663912979       16.0294839040        8.9295549448
  C         6.4031333039       16.3014540523       10.2480989783
  N        15.9752788652       17.5619102338       19.7148234429
  C        16.2365014348       17.2872763519       21.0328870865
  N        15.9118898448        6.7429216212        8.8977761848
  C        16.1876333105        6.4734177442       10.2145275495
  N        15.8958680687        5.1858473717        3.0299537124
  C        16.1716069421        5.4542946362        1.7126697210
  N        15.9673580484       16.0080677817       13.8571752764
  C        16.2339249310       16.2778428537       12.5389706051
 Zn        14.6693033282       14.7193613344       14.7193614226
 Br        13.3476533703       13.4086705200       13.4086706592
 Zn        14.6018457344        3.8967824329        3.8967830132
 Br        13.2798245937        2.5858800690        2.5858810520
 Zn         3.8346013431       14.7596276919        3.9150749699
 Br         2.5187136990       13.4473231117        2.5992000274
 Zn         3.8346009415        3.9150767221       14.7596278599
 Br         2.5187132316        2.5992016907       13.4473233256
 Zn         7.9589579179        8.0655977720       14.7391904062
 Br         9.2540049228        9.3809898586       13.4045413842
 Zn         7.9643426110       18.8979290928        3.9474877387
 Br         9.2815304835       20.2143694661        2.6362101016
 Zn        18.7543140657        8.0266085160        3.8919939188
 Br        20.0682592051        9.3394241533        2.5747500747
 Zn        18.8217433420       18.8548472317       14.7132082597
 Br        20.1350932665       20.1666592536       13.3949505250
 Zn         7.9589577807       14.7391901221        8.0655973202
 Br         9.2540044769       13.4045411303        9.3809896618
 Zn         7.9643420119        3.9474881044       18.8979293593
 Br         9.2815296790        2.6362104491       20.2143698525
 Zn        18.8217437967       14.7132082053       18.8548468185
 Br        20.1350938923       13.3949505908       20.1666588351
 Zn        18.7543141082        3.8919936344        8.0266097674
 Br        20.0682592264        2.5747496827        9.3394253000
 Zn        14.6202929870        8.0421394236        8.0421401658
 Br        13.3257322651        9.3657712731        9.3657717316
 Zn        14.6876442191       18.8607927921       18.8607937177
 Br        13.3778267744       20.1773932502       20.1773939260
 Zn         3.8159191881        8.0734270538       18.8795329631
 Br         2.5033195189        9.3943852763       20.1903640900
 Zn         3.8159190254       18.8795330090        8.0734255465
 Br         2.5033193762       20.1903640990        9.3943838117
 Zn        14.6530144143       14.7170415156        8.0487649536
 Br        13.3318627756       13.4095189967        9.3640427528
 Zn        14.6447456601        3.8888116513       18.8369214828
 Br        13.3286965639        2.5725113388       20.1497495642
 Zn         3.8563506417       14.7586823377       18.8909827739
 Br         2.5442246655       13.4457535649       20.2100750940
 Zn         3.7896138794        3.9401223729        8.0757193185
 Br         2.4788601686        2.6274297247        9.3967842617
 Zn         7.9477426635        8.0657545596        8.0657544180
 Br         9.3232228101        9.3498599753        9.3498601712
 Zn         8.0108916112       18.8840091750       18.8840085392
 Br         9.3329899882       20.1951191841       20.1951182863
 Zn        18.7759611522        8.0278885723       18.8719853705
 Br        20.0920195089        9.3409584583       20.1868181524
 Zn        18.7759615129       18.8719847284        8.0278885274
 Br        20.0920199796       20.1868173278        9.3409584867
 Zn        14.6530142673        8.0487651335       14.7170419664
 Br        13.3318627476        9.3640428260       13.4095192637
 Zn        14.6447463607       18.8369210374        3.8888115863
 Br        13.3286973337       20.1497489654        2.5725110766
 Zn         3.7896135097        8.0757193727        3.9401225325
 Br         2.4788595863        9.3967842409        2.6274300251
 Zn         3.8563501041       18.8909835234       14.7586818642
 Br         2.5442241763       20.2100758708       13.4457530164
 Zn         7.9902113010       14.7423003585       14.7422979063
 Br         9.2882400658       13.4195567995       13.4195551860
 Zn         7.9153876226        3.9292393178        3.9292386041
 Br         9.2210769665        2.6093889794        2.6093883205
 Zn        18.7917886214       14.7114140926        3.9037887371
 Br        20.1080177285       13.3935113433        2.5940889937
 Zn        18.7917882096        3.9037886064       14.7114148470
 Br        20.1080174149        2.5940888340       13.3935122657
 Zn         5.8950989146        6.0039433680       16.8225445603
 Zn        16.7567324834       16.7806276544       16.7806276894
 Zn        16.6732817815        5.9594424484        5.9594430509
 Zn         5.8950990911       16.8225444349        6.0039426363
 Zn         5.8557587727        6.0047690071        6.0047689724
 Zn        16.7163881105       16.7784110768        5.9617055564
 Zn         5.9379610323       16.8220945994       16.8220939216
 Zn        16.7163878754        5.9617055529       16.7784116596
  N         3.7095945681        5.9951738751       16.8213901495
  N        14.4963981833        5.9692366696        5.9692374474
  N        18.9358967507       16.7822226352       16.7822223884
  N         8.0806699516       16.8223983684        6.0122763193
  N        18.8653103830        5.9566314680        5.9566321501
  N         8.0806696828        6.0122768503       16.8223988947
  N         3.7095948425       16.8213900712        5.9951721658
  N        14.5661057257       16.7893015014       16.7893027065
  N        16.6730506528        3.7787506037        5.9626500156
  N        16.7493822573       14.6012941310       16.7842437953
  N        16.7555434259       18.9698732502       16.7850001397
  N        16.6850949892        8.1481706788        5.9629464835
  N         5.8923443837       19.0066977485        6.0138934425
  N         5.8867712799        8.1857387393       16.8083525553
  N         5.9005437122        3.8157003180       16.8310372161
  N         5.8965562451       14.6356836648        5.9893905181
  N         5.9005447557       16.8310367076        3.8156994080
  N         5.8965560261        5.9893916194       14.6356837192
  N        16.7555444467       16.7850002629       18.9698734162
  N        16.6850951243        5.9629461426        8.1481715895
  N         5.8923439867        6.0138943132       19.0066977454
  N         5.8867709269       16.8083524021        8.1857375853
  N        16.6730506756        5.9626489410        3.7787511064
  N        16.7493819072       16.7842439681       14.6012940218
  N         5.8503494130        3.8173566314        6.0038363676
  N         5.9243622551       14.6358855855       16.8190220662
  N        16.7093261013       18.9687205937        5.9565310085
  N        16.7188291876        8.1514190759       16.7905466338
  N         5.9396888356       19.0051594371       16.8198712573
  N         5.8666028621        8.1858303964        6.0069287212
  N        16.7163844590        3.7798777930       16.7720587592
  N        16.7195268504       14.5983205807        5.9729872089
  N         3.7451119322       16.8304925984       16.8304921226
  N        14.5312334836       16.7772050376        5.9681941523
  N        18.8993962588       16.7901327692        5.9655469378
  N         8.1161694224       16.8124508654       16.8124493205
  N        18.8993959678        5.9655466605       16.7901336729
  N         8.0465193455        5.9946220457        5.9946218279
  N         3.6745127281        6.0104566626        6.0104567797
  N        14.5312332029        5.9681948726       16.7772060811
  N        16.7093255827        5.9565310767       18.9687211560
  N        16.7188292519       16.7905461740        8.1514189674
  N        16.7163852270       16.7720582234        3.7798778804
  N        16.7195263922        5.9729870195       14.5983214166
  N         5.8503489079        6.0038365485        3.8173565304
  N         5.9243614249       16.8190232441       14.6358843433
  N         5.9396893455       16.8198716654       19.0051586371
  N         5.8666028649        6.0069288849        8.1858304439
  C        11.3330761323       15.7429702793       15.7429702325
  H        11.3266215382       14.9674673003       14.9674672432
  C        11.2633311665        4.9237989653        4.9237996015
  H        11.2558842178        4.1483311553        4.1483318498
  C         0.4947281174       15.7486025486        4.9228370022
  H         0.5048719036       14.9731717626        4.1473636203
  C         0.4947280082        4.9228374287       15.7486033709
  H         0.5048720086        4.1473638943       14.9731727381
  C        11.3058289426        7.0511799456       15.7452954914
  H        11.3060297716        7.8275296185       14.9706837133
  C        11.3062061983       17.8565403999        4.9325276935
  H        11.3067207736       18.6306958030        4.1555951091
  C         0.4501257990        7.0460545352        4.9305692656
  H         0.4499383015        7.8228518685        4.1563202251
  C         0.5200021934       17.8694846323       15.7540831872
  H         0.5204190893       18.6459800290       14.9794761359
  C        11.3058291487       15.7452935490        7.0511781492
  H        11.3060299467       14.9706816658        7.8275277182
  C        11.3062058689        4.9325291158       17.8565419780
  H        11.3067203878        4.1555964611       18.6306973093
  C         0.5200022727       15.7540832805       17.8694839442
  H         0.5204192442       14.9794760702       18.6459791772
  C         0.4501259955        4.9305686655        7.0460548441
  H         0.4499387348        4.1563195474        7.8228521020
  C        11.2804651772        7.0388197866        7.0388202285
  H        11.2864338391        7.8143460640        7.8143464582
  C        11.3486649426       17.8580915248       17.8580915321
  H        11.3555280097       18.6335952051       18.6335952211
  C         0.4741159754        7.0381344703       17.8632716721
  H         0.4641929731        7.8139210280       18.6385247255
  C         0.4741164669       17.8632714282        7.0381334884
  H         0.4641936835       18.6385246816        7.8139198483
  C        15.6793885304       11.3806997557       15.7280991893
  H        14.9036375131       11.3840114194       14.9528042519
  C        15.6284794075        0.5489272719        4.9039620797
  H        14.8518170895        0.5442291205        4.1296270439
  C         4.8184706361       11.4127097289        4.9454846460
  H         4.0374798606       11.4141371448        4.1755360759
  C         4.8620128443        0.5855224524       15.7716988142
  H         4.0850816693        0.5813373356       14.9975423001
  C        15.6448203524       11.3774840027        7.0248772971
  H        14.8703234864       11.3807717080        7.8013956394
  C        15.6780644511        0.5505404450       17.8342834203
  H        14.9025088373        0.5461517288       18.6098053102
  C         4.8493211894       11.4150971392       17.8729891775
  H         4.0764281684       11.4189053835       18.6511043601
  C         4.8128088981        0.5866044455        7.0679929220
  H         4.0380276373        0.5813496762        7.8442125184
  C         6.9583721541       11.4062529275       15.7519494219
  H         7.7315803347       11.4026030495       14.9741623400
  C         6.9247528361        0.5973725927        4.9498617882
  H         7.6983239783        0.6031340046        4.1723991260
  C        17.7574667142       11.3693546276        4.9074474002
  H        18.5319844111       11.3656740067        4.1309441822
  C        17.7922382770        0.5594162873       15.7180274999
  H        18.5665884028        0.5636942715       14.9413870185
  C         6.9513777679       11.4082158288        7.0425314262
  H         7.7344706026       11.4075511489        7.8101606566
  C         6.9788961391        0.5949937845       17.8849797091
  H         7.7545331828        0.5996900830       18.6603281451
  C        17.7944187864       11.3724948981       17.8433775091
  H        18.5701248388       11.3687946248       18.6186670945
  C        17.7449541473        0.5590467524        7.0178854347
  H        18.5205667617        0.5633844661        7.7933287501
  C        15.6793884026       15.7280990103       11.3806996873
  H        14.9036373441       14.9528041143       11.3840113766
  C        15.6284791919        4.9039614741        0.5489276944
  H        14.8518169629        4.1296263481        0.5442294732
  C         4.8620143201       15.7716980539        0.5855215295
  H         4.0850832653       14.9975414203        0.5813363737
  C         4.8184703927        4.9454854651       11.4127098856
  H         4.0374796268        4.1755368881       11.4141374412
  C         6.9583710505       15.7519495116       11.4062519880
  H         7.7315791671       14.9741623541       11.4026024598
  C         6.9247522167        4.9498622015        0.5973724185
  H         7.6983232948        4.1723994737        0.6031337073
  C        17.7922391854       15.7180271728        0.5594163506
  H        18.5665891090       14.9413864903        0.5636942470
  C        17.7574664373        4.9074469982       11.3693556568
  H        18.5319841083        4.1309437538       11.3656751609
  C        15.6448201698        7.0248770572       11.3774847793
  H        14.8703233598        7.8013954542       11.3807723750
  C        15.6780659021       17.8342837030        0.5505406637
  H        14.9025104446       18.6098057502        0.5461520397
  C         4.8128084149        7.0679935437        0.5866044761
  H         4.0380271888        7.8442131720        0.5813498226
  C         4.8493202082       17.8729894641       11.4150955977
  H         4.0764271998       18.6511046547       11.4189035114
  C         6.9513773714        7.0425324229       11.4082157509
  H         7.7344701531        7.8101617052       11.4075509438
  C         6.9788974689       17.8849791892        0.5949929833
  H         7.7545345284       18.6603276076        0.5996893139
  C        17.7449537349        7.0178850939        0.5590473830
  H        18.5205663058        7.7933284472        0.5633852253
  C        17.7944186816       17.8433773172       11.3724947508
  H        18.5701247220       18.6186669116       11.3687944595
 Xe         5.6273713929       10.4946981303       10.4946969126
