     409
 i =      56, E =    -5133.8517270252
  N         2.9442606448        5.3028927556       15.9500739829
  C         1.6178323278        5.5400612835       16.2163620836
  N        13.7561716191        5.0753666246        5.0994065659
  C        12.4362805293        5.3275357755        5.3830756268
  N        19.5404789125       17.5331304315       15.9762542011
  C        20.8590919413       17.2979102281       16.2714756847
  N         8.7506244152       17.6037493353        5.2529404540
  C        10.0654560505       17.2977991153        5.4994377700
  N        19.6187060229        5.1582178731        6.7309317534
  C        20.9353108285        5.4633348017        6.4907964720
  N         8.7851206691        5.2249236211       17.6431398548
  C        10.1010782834        5.4314392314       17.3128820783
  N         2.8680102017       17.6040650950        6.7822859334
  C         1.5547325694       17.3108482331        6.5096478044
  N        13.7012481367       17.5837996769       17.5913678809
  C        12.3768041756       17.3307119645       17.3356992389
  N        15.9305965918        2.9589204789        5.1262502252
  C        16.1855222375        1.6426073777        5.4131528200
  N        15.7931516894       13.8307952622       16.0114064811
  C        16.0687967305       12.5105020473       16.2686115840
  N        15.8784220139       19.7060259451       17.5559298699
  C        16.1516089869       21.0200212081       17.2724675306
  N        15.8569605006        8.8143819568        6.6703815183
  C        16.1283691760       10.1355120695        6.4166084296
  N         6.5801740249       19.7675707728        5.2317427241
  C         6.3067060160       21.0857350666        5.4949867612
  N         6.5370722114        9.0050404907       16.0745406919
  C         6.2512650796       10.3226111999       16.3321722411
  N         6.6184482899        3.1347319589       17.5563181369
  C         6.3376446000        1.8203987978       17.2886803274
  N         6.5392275112       13.8961603034        6.8202949410
  C         6.2704990357       12.5816121623        6.5299951334
  N         5.0535177262       16.0641083251        3.0833641180
  C         5.3214372708       16.3458175182        1.7690396294
  N         5.2023462223        5.4187621755       13.8624733111
  C         5.4805107762        5.6825519749       12.5448713197
  N        17.4185114614       15.9734650213       19.7049300708
  C        17.1562029064       16.2388487755       21.0259140427
  N        17.4531571604        5.1095676864        8.8506805439
  C        17.1890654702        5.3950856341       10.1663063926
  N         5.0048852427        6.7852152019       19.7294824071
  C         5.2651795208        6.5014106471       21.0450984066
  N         5.0223794665       17.6344897732        8.9457480208
  C         5.2974736018       17.3789986356       10.2656268638
  N        17.4750957804        6.6831585344        2.9837318127
  C        17.2030773840        6.4237828171        1.6641685767
  N        17.3672358562       17.5238185682       13.8428933009
  C        17.0958036975       17.2444006937       12.5284789446
  N         5.0691275545        3.1023494596        6.7958472261
  C         5.3131607027        1.7778422387        6.5218345375
  N         4.9896192884       13.9623081864       17.6394871892
  C         5.2430668763       12.6434771071       17.3597770659
  N        17.4134192425       19.6449797494        6.7482753164
  C        17.1631505088       20.9625832851        6.4614676852
  N        17.4029115764        8.8710521373       17.5015429924
  C        17.1132009487       10.1869642731       17.2466482896
  N         5.0276902186       19.8200200112       16.0429833169
  C         5.3112271625       21.1393394439       16.2942737767
  N         5.0513800447        8.9561172869        5.1357841753
  C         5.2949459871       10.2704906576        5.4467746283
  N        17.4604067496        3.0068789589       15.9652924456
  C        17.1798249326        1.6904455973       16.2362675072
  N        17.4317125328       13.7881011671        5.1818529768
  C        17.1579228819       12.4676170149        5.4364069566
  N         2.8631848204       16.1145729048       17.6294539277
  C         1.5452905382       16.3524363660       17.3347476985
  N        13.6948403910       15.9176586809        6.7177397926
  C        12.3787281590       16.2140478797        6.4646703266
  N        19.5811514111       15.9589529241        5.2000103378
  C        20.8938068060       16.2501257125        5.4770011769
  N         8.7117761472       16.0851873091       16.0886567213
  C        10.0338663535       16.3404647793       16.3488020091
  N        19.5915026658        6.7459555704       17.5065756429
  C        20.9133839070        6.4992908859       17.2372025555
  N         8.8088009389        6.6419675074        6.6843541049
  C        10.1218076391        6.3402955514        6.4252495481
  N         2.9213989936        6.8134142899        5.2419491601
  C         1.6084191279        6.5231277581        5.5083573472
  N        13.7301684557        6.6196894288       15.9105768505
  C        12.4162556280        6.3515795801       16.1992127368
  N        15.9085771975        5.1569200361       19.6652685989
  C        16.1853020364        5.4203635321       20.9813313799
  N        15.8235384958       15.9342786344        8.8921089196
  C        16.0831695153       16.2144095081       10.2111239436
  N        15.8727619770       17.5022731221        3.0339849230
  C        16.1471706352       17.2426670516        1.7153691755
  N        15.9139411462        6.7190990295       13.7969040909
  C        16.1842181875        6.4397683417       12.4807634569
  N         6.5491636557        5.1893303816        3.0283919332
  C         6.2739175542        5.4653184690        1.7154940457
  N         6.5770818757       16.1196154804       13.9154774487
  C         6.3135305330       16.3848270041       12.5955673086
  N         6.5850840805       17.6686640877       19.7756421646
  C         6.3268224650       17.3851792993       21.0935857063
  N         6.7867609022        6.9078665647        8.8867715435
  C         6.5080692505        6.6612729932       10.2085450590
  N        19.5521232933       17.5019843705        6.7680248229
  C        20.8742157842       17.2582276587        6.5001527897
  N         8.7387944177       17.6596198674       17.6243496911
  C        10.0531190388       17.3671095061       17.3533894937
  N         2.9409548139        5.2887344572        6.8268861474
  C         1.6181957200        5.5239931208        6.5403548638
  N        13.7437051314        5.1376287158       17.5354615590
  C        12.4230715938        5.3894881630       17.2633520726
  N         2.8559627795       17.6616208989       16.0645240582
  C         1.5396122775       17.3631163232       16.3141748498
  N        13.7059956743       17.5003199715        5.1894479520
  C        12.3865431521       17.2482830731        5.4681792954
  N        19.6190860771        5.1926109827       15.9488795689
  C        20.9333288891        5.4885213581       16.2168694443
  N         8.7867517058        5.1374179687        5.0840340182
  C        10.1098190870        5.3585371693        5.3780606611
  N         6.5741030119       19.8239378031       17.6093859108
  C         6.3173281579       21.1405502067       17.3197496265
  N         6.5889241114        8.9382445415        6.7052328057
  C         6.2972408718       10.2594601051        6.4746970251
  N         6.5820332486        3.0768119666        5.1981239198
  C         6.3060213676        1.7652014478        5.4835926143
  N         6.5162358331       13.9591874082       16.0565637679
  C         6.2373073350       12.6435401808       16.3253847893
  N        15.9056794290        3.0173918607       17.5229268911
  C        16.1673101203        1.6991491253       17.2550690332
  N        15.8629464571       13.7737333880        6.7253051142
  C        16.1332893139       12.4579949275        6.4432395647
  N        15.8694528083       19.6462118346        5.1818978035
  C        16.1544164257       20.9629739146        5.4391215467
  N        15.8180489442        8.8646915117       15.9738720228
  C        16.0785265204       10.1852443796       16.2499251130
  N        17.4461416055        6.7290442247       19.6645272987
  C        17.1896867019        6.4468179868       20.9827089375
  N        17.3840310766       17.4850336987        8.8939630496
  C        17.1040664603       17.2247087940       10.2100529998
  N         5.0034094345        6.7544615954        3.0409861438
  C         5.2638776832        6.4860054873        1.7224334316
  N         5.0126852249       17.6648151373       13.9042074307
  C         5.2919847010       17.3943245886       12.5881075834
  N        17.4292817489       15.9468673064        3.0269752396
  C        17.1607608159       16.2247733394        1.7094868226
  N        17.4597258299        5.1524049385       13.8071589466
  C        17.1925006123        5.4165628487       12.4878239912
  N         5.0224536201       16.1194958716       19.7750314911
  C         5.3065173232       16.3740560964       21.0913165553
  N         5.2168687895        5.3572592704        8.9076018534
  C         5.4883416473        5.6495177268       10.2211774164
  N        17.4135589757       19.6882450190       15.9810729332
  C        17.1567153949       21.0089077366       16.2466729551
  N        17.4330754934        8.8308792653        5.1356798504
  C        17.1559731842       10.1457230432        5.4129984159
  N         5.1013607938        3.1448575596       15.9642369780
  C         5.3426727709        1.8233395570       16.2527857284
  N         5.0176431741       13.9128310579        5.2317992006
  C         5.2770729224       12.5924500921        5.4945659604
  N        17.4785588031        2.9623429345        6.6907161388
  C        17.1955876411        1.6437795080        6.4345189506
  N        17.3796429031       13.8243498406       17.5364129028
  C        17.1042298306       12.5078889954       17.2642899064
  N         5.0285894247       19.7746867528        6.7919213572
  C         5.2988151182       21.0926170449        6.5183242936
  N         5.0099385008        9.0006141715       17.6538838042
  C         5.2540376883       10.3199715200       17.3649650742
  N        19.6116404028        6.7059676429        5.1665023277
  C        20.9292951589        6.4710427814        5.4672150666
  N         8.7797454621        6.6996842524       16.0160140772
  C        10.0968528237        6.3933225624       16.2479167173
  N         2.9035301828        6.8289507433       17.5348585294
  C         1.5938077782        6.5402341966       17.2474460168
  N        13.7557312428        6.5857085138        6.6997295052
  C        12.4406595451        6.3087475373        6.4299636875
  N         2.8944161844       16.0582869701        5.2169650331
  C         1.5734905718       16.3018521817        5.4877873408
  N        13.6657104358       16.0186232536       16.0441602037
  C        12.3545890096       16.3080981185       16.3271620017
  N        19.5500597995       15.9817160143       17.5368087962
  C        20.8655378680       16.2854367913       17.2904650988
  N         8.7350447525       16.0165720969        6.7764305278
  C        10.0561356599       16.2615389561        6.4944613423
  N         6.6153157798       17.6123600047        3.0940480472
  C         6.3414109071       17.3566905563        1.7746114454
  N         6.7532698576        6.9902720784       13.8597538290
  C         6.4929300390        6.7023141853       12.5414807381
  N         6.5626330821        5.2307364222       19.7255579032
  C         6.2797782668        5.4850739600       21.0410013280
  N         6.5865201348       16.0869346755        8.9563505258
  C         6.3188550022       16.3687338702       10.2730193390
  N        15.8798352417       17.5463054421       19.7189008568
  C        16.1495639952       17.2635639880       21.0341337213
  N        15.9104032031        6.6766759397        8.8392875976
  C        16.1816580899        6.4187548716       10.1590717306
  N        15.9352448599        5.1117938980        2.9743850553
  C        16.1979862149        5.3977458180        1.6595053181
  N        15.7953670482       15.9843746231       13.8549045157
  C        16.0705047376       16.2385405615       12.5342713713
 Zn        14.4947963674       14.7131994583       14.7380731273
 Br        13.1652264987       13.4040160188       13.4305829843
 Zn        14.6470654636        3.8001132573        3.8122767405
 Br        13.3312222272        2.4885852777        2.4960736445
 Zn         3.7513769382       14.7718771104        3.9221354444
 Br         2.4474771211       13.4544196036        2.6010820340
 Zn         3.8827504942        4.0704990953       14.6561675183
 Br         2.5906976641        2.7779793395       13.2971946100
 Zn         8.0014848362        8.2142523948       14.9346138486
 Br         9.6622276262        9.8043801385       14.9467506161
 Zn         7.8990194762       18.9040626821        3.9625315371
 Br         9.2324313930       20.2024338838        2.6521697813
 Zn        18.7495914866        7.9841861297        3.8547811641
 Br        20.0536861133        9.3167573775        2.5494534824
 Zn        18.6764265887       18.8154825347       14.6744560879
 Br        19.9978214026       20.1161147808       13.3533137766
 Zn         7.8473208409       14.7668653807        8.0915217375
 Br         9.1900901643       13.5042288516        9.4274944614
 Zn         7.8892373310        3.9488424063       18.9023505708
 Br         9.1721217845        2.6045783288       20.2144692671
 Zn        18.6904569751       14.6739280472       18.8209557536
 Br        20.0125361781       13.3571072609       20.1251213537
 Zn        18.7617633509        3.8330794077        7.9938523811
 Br        20.0819215642        2.5204035610        9.3056368390
 Zn        14.5897472497        7.9256700704        7.9629412458
 Br        13.2879350048        9.2194084895        9.3157854818
 Zn        14.6010575402       18.8635306763       18.8746820872
 Br        13.3134289378       20.1914244797       20.2020293947
 Zn         3.7124399807        8.0968247834       18.8914291105
 Br         2.3649994996        9.3650420622       20.2160461306
 Zn         3.7238773974       18.9122206896        8.0683205613
 Br         2.4052806893       20.2372288935        9.3703598383
 Zn        14.5553148494       14.6230443349        8.0112774944
 Br        13.2495418023       13.2988590840        9.3268592977
 Zn        14.6123473120        3.8602600501       18.8255742623
 Br        13.2940643721        2.5527549514       20.1423453276
 Zn         3.7177539470       14.8298938237       18.9352131380
 Br         2.4021022196       13.5162922418       20.2496898270
 Zn         3.8629293842        4.0430809037        8.1163214787
 Br         2.5673656806        2.7550779724        9.4751098062
 Zn         8.0454921807        8.1151426316        7.8296511575
 Br         9.6870463299        9.7066090224        7.9859061860
 Zn         7.8734747764       18.9643807274       18.9037654451
 Br         9.2009801383       20.2639505740       20.2196583377
 Zn        18.7148345242        8.0329173757       18.7897505310
 Br        20.0113834013        9.3632635825       20.1066524286
 Zn        18.6797855496       18.7821794569        8.0583439752
 Br        19.9924225496       20.0985693124        9.3742956042
 Zn        14.5693727987        7.9639336635       14.6574763878
 Br        13.2552460840        9.2554643412       13.3148045235
 Zn        14.5704078015       18.7840525546        3.8953402002
 Br        13.2637117579       20.1096263335        2.5843439615
 Zn         3.7366298851        8.0758881520        3.8923014449
 Br         2.4008017010        9.3747271117        2.5858821077
 Zn         3.7204924292       18.9515161666       14.7689556570
 Br         2.4105857491       20.2766097167       13.4575613283
 Zn         7.8379602690       14.8156039497       14.7928408020
 Br         9.1646796216       13.5284792122       13.4650833486
 Zn         7.8488357454        3.8746410525        3.8380675341
 Br         9.0984951675        2.5173004286        2.5061531763
 Zn        18.7269370639       14.6636710919        3.8978741799
 Br        20.0539186152       13.3652549976        2.5794729080
 Zn        18.7631074603        3.8741350417       14.6768056517
 Br        20.0888492793        2.5520846854       13.3802780463
 Zn         5.8558771652        6.0788529862       16.8267015350
 Zn        16.6119916464       16.7641057192       16.7762389519
 Zn        16.6821238619        5.8873902970        5.9026483914
 Zn         5.8077434881       16.8354100776        6.0161397722
 Zn         5.8685098618        6.0181226337        5.9400704724
 Zn        16.6338480084       16.7110918263        5.9598233906
 Zn         5.7879076158       16.8921872400       16.8520844931
 Zn        16.6655361206        5.9398011845       16.7273519432
  N         3.6702007581        6.0788275291       16.7493391722
  N        14.5025186123        5.8384706233        5.8939002175
  N        18.7987970590       16.7402876425       16.7438344043
  N         7.9965853662       16.8265875908        6.0242731169
  N        18.8689744477        5.9130756823        5.9326874937
  N         8.0370534665        5.9943438867       16.8581968412
  N         3.6278273482       16.8428589396        5.9994219872
  N        14.4298605322       16.7916427947       16.8105629534
  N        16.7107798044        3.7069343242        5.9002336942
  N        16.5863359413       14.5742812475       16.7774199630
  N        16.6421539441       18.9499854204       16.7730907558
  N        16.6481373252        8.0756775192        5.8977492245
  N         5.8055018880       19.0244654055        6.0156322242
  N         5.7885861664        8.2569579908       16.8741169533
  N         5.8700031175        3.8868207313       16.7566861529
  N         5.7813816970       14.6515620142        6.0307119575
  N         5.8354665697       16.8318495392        3.8357859857
  N         5.9698395644        6.2061233411       14.6087892284
  N        16.6468924928       16.7642768648       18.9651270796
  N        16.6793950946        5.8859227105        8.0977893341
  N         5.7913200926        6.0168648743       18.9815472556
  N         5.8018123847       16.8533291702        8.2046516967
  N        16.7070600959        5.8907774935        3.7256612388
  N        16.5808897940       16.7607677033       14.5955511150
  N         5.8350514111        3.8358693702        5.9928873500
  N         5.7602691373       14.7080214072       16.8528155879
  N        16.6327002157       18.8985446277        5.9727516198
  N        16.6204483470        8.1216379981       16.7318192738
  N         5.7936050448       19.0758958619       16.8353617889
  N         5.8364622169        8.2014259527        5.8986281127
  N        16.6871428320        3.7585858842       16.7440726894
  N        16.6475780376       14.5273187286        5.9604652590
  N         3.6059271434       16.9026639525       16.8586704742
  N        14.4472377624       16.6979448879        5.9473703801
  N        18.8200317335       16.7191424123        5.9822853122
  N         7.9784960041       16.8824828184       16.8583227366
  N        18.8585065834        5.9566721447       16.7283342895
  N         8.0517071175        5.9156953490        5.8729082187
  N         3.6781005455        6.0642214341        6.0370890528
  N        14.4840521973        5.8847363643       16.7217778039
  N        16.6715157695        5.9476292201       18.9175688401
  N        16.6101476241       16.7048888513        8.1462323992
  N        16.6492325465       16.7198786548        3.7770054436
  N        16.6850480070        5.9389331045       14.5482439095
  N         5.7817678471        5.9709664176        3.7811511437
  N         5.7904832664       16.8928135376       14.6571260963
  N         5.7965227138       16.9011083841       19.0290668663
  N         6.0003993037        6.1174274653        8.1496845405
  C        11.1817576237       15.7696252658       15.7941557883
  H        11.1627214084       14.9881822330       15.0249924383
  C        11.2672209339        4.8058625776        4.8188189372
  H        11.2587949646        4.0541458367        4.0208326185
  C         0.4278722417       15.7297483362        4.9291865579
  H         0.4512952792       14.9596716528        4.1486202205
  C         0.4674111074        4.9713084534       15.6613523267
  H         0.4841503008        4.2033316096       14.8789043741
  C        11.2550945586        6.8788810117       15.6372073446
  H        11.2608360988        7.6266184362       14.8385283514
  C        11.2307393401       17.8322987665        4.9443947895
  H        11.2375886226       18.6219693383        4.1833240450
  C         0.4460101815        7.0424309375        4.9340263742
  H         0.4433040004        7.8097874153        4.1502018504
  C         0.3744906047       17.8789633376       15.7420601689
  H         0.3663812180       18.6528915885       14.9650737886
  C        11.2130483249       15.6764069942        7.0165967826
  H        11.2069490460       14.8864677934        7.7771858158
  C        11.2646929908        4.8820175595       17.8586726741
  H        11.2690141604        4.1447100150       18.6700045332
  C         0.3904404148       15.7722465277       17.8651893310
  H         0.3991092414       15.0004164340       18.6443649891
  C         0.4592104095        4.9526831832        7.0734535042
  H         0.4613381795        4.1857853985        7.8572546080
  C        11.2887221175        6.8433779509        7.0021187877
  H        11.3037763172        7.6053582966        7.7876582582
  C        11.2275979572       17.9023701047       17.8898365124
  H        11.2468013695       18.6836266358       18.6592873178
  C         0.4214029847        7.0645533587       17.7962780273
  H         0.4037512840        7.8325780160       18.5792942462
  C         0.3805487042       17.8305202151        7.0584066196
  H         0.3580991530       18.6019290162        7.8376542567
  C        15.5127619265       11.3496226671       15.7219565122
  H        14.7233046160       11.3539047161       14.9608585546
  C        15.6231891912        0.4838058781        4.8731861370
  H        14.8509059109        0.4850791824        4.0943610045
  C         4.7418071720       11.4385139727        4.9160063934
  H         3.9786572719       11.4501657037        4.1288217169
  C         4.7848254412        0.6591773750       15.7168095874
  H         4.0182562895        0.6533833548       14.9327168461
  C        15.5756703956       11.2916979202        6.9736947889
  H        14.7937107129       11.2852602394        7.7426205592
  C        15.6117487120        0.5470851897       17.8159825627
  H        14.8396617444        0.5586837939       18.5949966530
  C         4.7053399085       11.4804120608       17.9186290930
  H         3.9438251401       11.4787734074       18.7074948464
  C         4.7627010795        0.6180462838        7.0756066239
  H         3.9966205933        0.6196429751        7.8601805143
  C         6.7748420757       11.4861998877       15.7643476546
  H         7.5513212192       11.4953970852       14.9930545654
  C         6.8455015088        0.6023064349        4.9296677578
  H         7.6080429642        0.5999957652        4.1411575209
  C        17.7113599636       11.3117869346        4.8802783622
  H        18.4940453505       11.3184985584        4.1120018853
  C        17.7132809932        0.5221917594       15.6869573263
  H        18.4828694158        0.5104630809       14.9058106265
  C         6.8160997844       11.4150555977        7.0653410168
  H         7.5936009689       11.4092248026        7.8359355685
  C         6.8685498149        0.6626187215       17.8619186510
  H         7.6321564269        0.6687271164       18.6493679806
  C        17.6672793556       11.3457531757       17.7952592210
  H        18.4568835665       11.3421594422       18.5565414468
  C        17.7256110902        0.4822865333        7.0012793663
  H        18.4956070704        0.4806248079        7.7821577146
  C        15.5223932680       15.6817629316       11.3752057694
  H        14.7409658312       14.9124410849       11.3791691268
  C        15.6471565130        4.8535380131        0.4980925033
  H        14.8781955887        4.0714522525        0.4941827714
  C         4.7620468407       15.8115129131        0.6072095252
  H         3.9830024888       15.0395027197        0.6029316432
  C         4.9357447299        5.1192526532       11.3886990053
  H         4.1585138495        4.3440054693       11.3978228765
  C         6.8705472826       15.8323642523       11.4392053899
  H         7.6516086275       15.0625444204       11.4475049492
  C         6.8237516593        4.9201412255        0.5549367465
  H         7.5962595678        4.1414398438        0.5503162520
  C        17.7053938411       15.6798540288        0.5433580535
  H        18.4769324662       14.9004431513        0.5368442089
  C        17.7365826326        4.8524386769       11.3313145855
  H        18.5059007773        4.0708936192       11.3376167354
  C        15.6387324790        6.9840637974       11.3156323305
  H        14.8689665753        7.7652419756       11.3086722758
  C        15.6027437279       17.8063437160        0.5590930147
  H        14.8320840066       18.5866973916        0.5657986253
  C         4.7135471737        7.0445787834        0.5670897797
  H         3.9411495468        7.8233102557        0.5718587696
  C         4.7441399384       17.9348516567       11.4220817482
  H         3.9653353008       18.7069629983       11.4148408362
  C         7.0453593863        7.2271019497       11.3689891060
  H         7.8176401786        8.0031261488       11.3591196535
  C         6.8875930838       17.9175605413        0.6171679327
  H         7.6670120978       18.6891048330        0.6223957888
  C        17.7403007353        6.9913755018        0.5057431547
  H        18.5063950825        7.7760754100        0.5094287352
  C        17.6540792886       17.7803239008       11.3667138511
  H        18.4363939150       18.5492327366       11.3628482166
 Xe         9.6869374482       10.3267924667       11.4581168831
