     409
 i =      56, E =    -5133.8515436344
  N         2.8151061296        5.2135200926       15.9679896350
  C         1.4975771686        5.5000663488       16.2255753712
  N        13.5876674320        5.1230409413        5.0748963048
  C        12.2684886768        5.3553274315        5.3788811172
  N        19.6380081629       17.6305051367       16.0340446617
  C        20.9548942241       17.3465608903       16.2975515504
  N         8.7620437679       17.5395358593        5.2154941603
  C        10.0808734152       17.2675744185        5.4793238817
  N        19.4453629967        5.2477040136        6.7894672466
  C        20.7681733697        5.5024435766        6.5200168668
  N         8.6711921040        5.1681002786       17.5687912063
  C         9.9922465137        5.4014106637       17.2818576036
  N         2.9022451216       17.5354771801        6.7830494913
  C         1.5833753157       17.2791024852        6.5069027463
  N        13.7750327190       17.6351276803       17.6055152179
  C        12.4583941140       17.3522251986       17.3395284035
  N        15.7824682620        3.0340072889        5.1807857306
  C        16.0755404332        1.7242841086        5.4630981942
  N        15.9710817140       13.9218323688       16.0271034707
  C        16.2369118368       12.6043713826       16.2989710142
  N        15.9324397687       19.7859874654       17.5834676590
  C        16.1672616805       21.1037594908       17.2856200122
  N        15.8223285763        8.9092833142        6.6723535371
  C        16.1261614772       10.2274363336        6.4432801820
  N         6.5866144979       19.6967165798        5.2162102427
  C         6.2787065472       21.0102865013        5.4653481093
  N         6.6079191350        8.8902847158       15.9978111617
  C         6.3614594860       10.2126721582       16.2757507761
  N         6.5198580508        3.0516492745       17.5716901049
  C         6.2767786253        1.7310663914       17.2991765544
  N         6.5939126125       13.8115781980        6.7388934501
  C         6.3122667808       12.4971273499        6.4608762435
  N         5.0474319020       16.0053474392        3.0441413890
  C         5.3239950438       16.2823302804        1.7284576146
  N         4.9640529922        5.1721812796       13.8376511848
  C         5.2184468514        5.4436339545       12.5173241306
  N        17.4828841166       16.0703224040       19.7499085104
  C        17.1928376105       16.3219943703       21.0664772927
  N        17.1820410184        5.3220017489        8.8787255119
  C        16.9157639257        5.6119241138       10.1938542502
  N         4.9571355431        6.7747328309       19.6900342046
  C         5.2060701301        6.4947978903       21.0104666669
  N         5.0798090360       17.5241148217        8.9205886974
  C         5.3698779024       17.2645314248       10.2353361822
  N        17.3702103497        6.7054962609        3.0181968182
  C        17.1162919423        6.4336038274        1.7005744174
  N        17.4840185250       17.6305471573       13.8738899780
  C        17.2001776565       17.3567257572       12.5592368364
  N         4.9031434598        2.9950964666        6.7098650443
  C         5.1989456625        1.6790933354        6.4540079587
  N         5.1054600964       13.8629842454       17.5667381707
  C         5.3656140218       12.5443734549       17.2923238514
  N        17.4180924167       19.7490544410        6.7631338412
  C        17.1260848897       21.0634021891        6.4928850693
  N        17.4188514889        8.9554241663       17.6452720753
  C        17.1911518008       10.2753211177       17.3479914136
  N         5.0843963566       19.7106827232       16.0085876119
  C         5.3235626414       21.0326350871       16.2814749874
  N         4.9687274298        8.8769618004        5.1736622337
  C         5.2623511097       10.1903595410        5.4426682460
  N        17.3306183491        3.1204502523       15.9252007268
  C        17.1034040912        1.7961179866       16.2124435576
  N        17.4482217496       13.8714420363        5.2145333993
  C        17.1733686562       12.5521882574        5.4701360855
  N         2.9462024898       16.0157625122       17.5649701037
  C         1.6303344708       16.3014809257       17.3027770122
  N        13.7286224778       15.9874045575        6.7545246553
  C        12.4079239801       16.2466646615        6.4829950030
  N        19.5805656316       16.0283520273        5.2038993375
  C        20.8984142066       16.2893453861        5.4789769422
  N         8.8307215940       16.0295157887       16.0538327280
  C        10.1451226928       16.3115040835       16.3285919060
  N        19.5107469880        6.7955119906       17.5260110302
  C        20.8235161131        6.5229823566       17.2414699270
  N         8.6398578512        6.6108463287        6.7297593092
  C         9.9518568305        6.3251000333        6.4512969424
  N         2.7742773939        6.7493579550        5.2004476605
  C         1.4564350905        6.4919293905        5.4818650481
  N        13.6401137566        6.6668114639       16.0015139025
  C        12.3215939104        6.3732481526       16.2430307065
  N        15.8506877863        5.1780944984       19.6972919853
  C        16.1206686155        5.4329717684       21.0150395710
  N        15.8812648337       16.0505626151        8.9335945602
  C        16.1580699245       16.3297578342       10.2492678787
  N        15.8616772484       17.5626515145        3.0636200138
  C        16.1440020902       17.3059178007        1.7460097506
  N        15.6687293734        6.9557963186       13.8387575410
  C        15.9223242729        6.6649628776       12.5193422623
  N         6.4421409613        5.1601632151        3.0069999455
  C         6.1835370919        5.4466551065        1.6921735615
  N         6.6948734067       16.0091789427       13.8732592168
  C         6.4163979483       16.2699339435       12.5539343187
  N         6.6344463603       17.5816212488       19.7390618510
  C         6.3550246548       17.3087268234       21.0551565226
  N         6.4811234351        6.7115284110        8.8664266385
  C         6.2127853575        6.4525932695       10.1861705589
  N        19.5853200919       17.5825938449        6.7623413558
  C        20.9022743087       17.3018130895        6.4979203616
  N         8.8122389609       17.6000525406       17.5960217902
  C        10.1343490693       17.3369410251       17.3345965738
  N         2.7697294776        5.1966166221        6.7608808932
  C         1.4520803019        5.4822683794        6.5037833503
  N        13.6329649406        5.1868691292       17.6249920192
  C        12.3161085220        5.4101645161       17.3071108422
  N         2.9544962040       17.5636666328       16.0038430095
  C         1.6357362013       17.3133450452       16.2838194589
  N        13.7179739880       17.5676713741        5.2250366402
  C        12.4022338679       17.2802565512        5.4855138567
  N        19.4893410193        5.2778280389       15.9340177893
  C        20.8130161732        5.5259864704       16.2074450400
  N         8.6204374391        5.1080248323        5.1242333879
  C         9.9429013672        5.3477317305        5.4013928521
  N         6.6284423560       19.7389160510       17.5749304448
  C         6.3329949676       21.0516179652       17.3032023827
  N         6.5500174493        8.8511354162        6.7042809665
  C         6.2921574738       10.1739857068        6.4442101982
  N         6.4485497091        3.0062285625        5.1444860403
  C         6.2085774052        1.6882111256        5.4326088377
  N         6.6875609201       13.8547571328       16.0370075125
  C         6.3988269141       12.5372598009       16.2945244028
  N        15.8102825215        3.0926904322       17.5150347334
  C        16.1079328741        1.7817845917       17.2480036001
  N        15.9218114100       13.8633911543        6.7981851330
  C        16.1780449579       12.5477583525        6.5039568877
  N        15.8703501868       19.7231448295        5.1990087233
  C        16.1190147017       21.0443891299        5.4688382249
  N        15.8970930095        8.9680813368       16.0605966616
  C        16.1959775327       10.2838572225       16.3132010494
  N        17.4073023500        6.7329340165       19.7131439797
  C        17.1358469721        6.4484449257       21.0257947127
  N        17.4423596682       17.6011461928        8.9171146322
  C        17.1783940787       17.3409554687       10.2374988958
  N         4.9054452040        6.7342912373        3.0129747760
  C         5.1803500298        6.4745220815        1.6932416867
  N         5.1277636915       17.5540382991       13.8705776963
  C         5.3942697229       17.2791535275       12.5544553287
  N        17.4235014819       16.0141959685        3.0625823760
  C        17.1627772236       16.2937705863        1.7458370157
  N        17.2236556906        5.3887840261       13.8359471398
  C        16.9358945696        5.6469298169       12.5188830856
  N         5.0848196094       16.0187587887       19.7258234094
  C         5.3423933558       16.2898236513       21.0459661305
  N         4.9379074780        5.1434206419        8.8798913669
  C         5.2060263041        5.4280876746       10.1954110405
  N        17.4708228223       19.7955477011       16.0099742423
  C        17.1695148118       21.1123624860       16.2566983838
  N        17.3535324412        8.9152146916        5.0973111087
  C        17.1259009937       10.2308744419        5.4130078195
  N         4.9699798405        3.0265558406       16.0105590053
  C         5.2652744307        1.7129993576       16.2797796933
  N         5.0295254089       13.8346008238        5.1912761803
  C         5.2890657387       12.5127027367        5.4527901616
  N        17.3039497648        3.0734534871        6.7695266961
  C        17.0726091938        1.7474017356        6.4970773022
  N        17.5000175042       13.9159548993       17.6063871095
  C        17.2323628503       12.5982418014       17.3322048038
  N         5.0366199678       19.6795935440        6.7762913680
  C         5.2671148033       20.9992135079        6.4848527738
  N         5.0204544641        8.9095428978       17.5228878778
  C         5.3260519908       10.2234321529       17.2718146201
  N        19.4637767666        6.7688481006        5.2018504613
  C        20.7768258353        6.5002450475        5.4869624135
  N         8.6868713477        6.6415386791       15.9346870891
  C        10.0004382061        6.3592660774       16.2137414636
  N         2.8217777101        6.7741113050       17.5191927084
  C         1.5033827249        6.5136126100       17.2433921016
  N        13.5880143450        6.6298402916        6.6744631945
  C        12.2711518472        6.3367734507        6.4266898712
  N         2.8950516659       15.9987028268        5.2092105653
  C         1.5788457885       16.2732316787        5.4816485928
  N        13.7865004198       16.0605356772       16.0698197662
  C        12.4667024444       16.3248777416       16.3356356004
  N        19.6323452207       16.0760909548       17.5933554448
  C        20.9503060250       16.3326742904       17.3153200343
  N         8.7676774521       15.9506562370        6.7375139811
  C        10.0849372488       16.2308882546        6.4734819349
  N         6.6056090774       17.5587938074        3.0588448062
  C         6.3401175719       17.2976479133        1.7381171107
  N         6.5005698405        6.7468119245       13.8225609960
  C         6.2225986713        6.4706561825       12.5073695063
  N         6.4958595685        5.2036990625       19.7015265127
  C         6.2101866476        5.4681279906       21.0152179739
  N         6.6395211005       15.9714624517        8.9101184136
  C         6.3890823731       16.2523140187       10.2304195136
  N        15.9278258738       17.6267255959       19.7481356433
  C        16.1766522314       17.3371880042       21.0657733431
  N        15.6192264423        6.8793396494        8.8650668673
  C        15.8992261279        6.6262508274       10.1856589294
  N        15.8177142368        5.1454687481        3.0027941329
  C        16.1028062717        5.4161054226        1.6899366285
  N        15.9191821397       16.0850244624       13.8929062141
  C        16.1783237593       16.3474008511       12.5717556698
 Zn        14.6550784563       14.7844735115       14.7717287250
 Br        13.2966494220       13.5256894672       13.4497083762
 Zn        14.5065271416        3.8407106970        3.8299015034
 Br        13.2454909301        2.4912072665        2.5017393537
 Zn         3.7457996959       14.7163564289        3.8994821116
 Br         2.4198467939       13.4238722922        2.5748197795
 Zn         3.6772044611        3.8849336621       14.7129449958
 Br         2.3477522830        2.5644648006       13.4172636655
 Zn         7.8477911321        7.9911781902       14.6760003564
 Br         9.1725662239        9.2692442001       13.3313180773
 Zn         7.8972822073       18.8409826818        3.9374786138
 Br         9.2099467451       20.1657676151        2.6306773179
 Zn        18.6534274389        8.0238493813        3.8465259706
 Br        19.9917615810        9.3162551740        2.5376322437
 Zn        18.7767206453       18.9265451112       14.7337652258
 Br        20.0921834893       20.2418564552       13.4206335869
 Zn         7.9007935414       14.6585129085        8.0267007385
 Br         9.2025954336       13.3246041512        9.3373900381
 Zn         7.7989044065        3.9073913997       18.8758765651
 Br         9.1183979871        2.6022728942       20.1943591429
 Zn        18.7813934728       14.7805781670       18.8939823106
 Br        20.0939486028       13.4618194962       20.2070280678
 Zn        18.5204210380        4.0032361259        8.0790891409
 Br        19.8176971284        2.7121889797        9.4347584650
 Zn        14.3723673765        8.1023077625        7.8084466054
 Br        12.7322460277        9.6955504756        7.9895979489
 Zn        14.6478495810       18.9303968691       18.8866640345
 Br        13.3254746998       20.2315638081       20.2063885853
 Zn         3.6906540739        8.0716080850       18.8013614619
 Br         2.3960414035        9.4139968123       20.1072997762
 Zn         3.7707375091       18.8145512846        8.0814922774
 Br         2.4584830136       20.1252047923        9.4026245401
 Zn        14.6128813270       14.7337161502        8.0653276491
 Br        13.2573868277       13.4904629149        9.4049762495
 Zn        14.5368249068        3.8934989577       18.8682373541
 Br        13.2513584412        2.5480081357       20.1767710029
 Zn         3.8028309931       14.7201207388       18.8537184506
 Br         2.4810087434       13.4106146507       20.1649070361
 Zn         3.6286056568        3.8633972738        8.0163582775
 Br         2.3054249725        2.5594545922        9.3338497973
 Zn         7.8150520174        7.9529300648        7.9989377438
 Br         9.1301678542        9.2396645786        9.3437222480
 Zn         7.9195466078       18.8857470225       18.8792785055
 Br         9.2166750039       20.2125715184       20.1997288238
 Zn        18.7067317464        8.0489417038       18.8911714744
 Br        20.0522026220        9.3131870434       20.2198969031
 Zn        18.7259927616       18.8905989791        8.0449316577
 Br        20.0458886321       20.2203849270        9.3402047348
 Zn        14.4291622095        8.1779145673       14.9236828580
 Br        12.7726259267        9.7771553392       14.9391994757
 Zn        14.5662833834       18.8520230741        3.9229891873
 Br        13.2400958304       20.1501629437        2.6052090767
 Zn         3.6387390955        8.0369641736        3.8985352884
 Br         2.3400125816        9.3779171202        2.5958945834
 Zn         3.8174601300       18.8387347060       14.7072322752
 Br         2.5028216032       20.1485749241       13.3861184285
 Zn         7.9898568071       14.7240977418       14.7584881401
 Br         9.3001549076       13.4076534196       13.4399463730
 Zn         7.7323484753        3.8464919988        3.8344755082
 Br         9.0349765504        2.5278278181        2.5122898790
 Zn        18.7242836317       14.7279806177        3.9114129039
 Br        20.0324858170       13.4053518595        2.5992591961
 Zn        18.5574170509        4.0565028445       14.6241861395
 Br        19.8476429066        2.7614364591       13.2660781600
 Zn         5.7488424208        5.9654663859       16.7649578358
 Zn        16.7172352458       16.8632567218       16.8230753239
 Zn        16.5088049589        5.9880061944        5.9038893060
 Zn         5.8351013517       16.7576579411        5.9903664507
 Zn         5.6939818153        5.9323653115        5.9422705879
 Zn        16.6595773562       16.8035761868        5.9965605892
 Zn         5.8934738161       16.7885625332       16.8034806672
 Zn        16.5587463898        6.0446474017       16.8082934677
  N         3.5648596707        5.9864249209       16.7482441990
  N        14.3334637443        5.8974585837        5.8579731486
  N        18.8893584707       16.8595176004       16.8178148570
  N         8.0182501527       16.7429927865        5.9770905089
  N        18.7070319414        6.0113705719        5.9891682771
  N         7.9322731673        5.9190368167       16.7568516132
  N         3.6456617646       16.7628152728        5.9969555123
  N        14.5275922213       16.8533954590       16.8370598091
  N        16.5271737544        3.8002104351        5.9716903766
  N        16.7351064530       14.6667778178       16.8191253115
  N        16.7188426065       19.0446566347       16.8099406195
  N        16.5643330407        8.1664861235        5.8612816019
  N         5.8314170173       18.9415036435        6.0078664199
  N         5.7967433886        8.1537799565       16.7526134651
  N         5.7326987040        3.7856859493       16.7925625555
  N         5.8179286389       14.5697407956        5.9694439990
  N         5.8240940816       16.7777903004        3.7983515225
  N         5.7393715497        5.9596633941       14.5768000192
  N        16.7162913761       16.8585054852       19.0026059626
  N        16.4007001610        6.0879054343        8.1237240301
  N         5.7366707435        5.9929385293       18.9486740357
  N         5.8486038239       16.7420535098        8.1690820845
  N        16.5848889380        5.9274772906        3.7561833200
  N        16.7078062214       16.8600589039       14.6303540319
  N         5.6632135170        3.7473798444        5.9187092991
  N         5.9037968088       14.6054801376       16.8060853141
  N        16.6549098844       18.9895588763        5.9816448966
  N        16.6354328077        8.2163499096       16.8663087807
  N         5.8702943983       18.9779759420       16.7907447512
  N         5.7483137970        8.1175805600        5.9375844247
  N        16.5529051975        3.8531161553       16.7170619027
  N        16.6890874545       14.6145747391        6.0139298243
  N         3.6979611527       16.7809540959       16.7795612306
  N        14.4700661801       16.7858634559        5.9930309015
  N        18.8366419899       16.8100978267        5.9803728776
  N         8.0752131098       16.8094319761       16.8212586627
  N        18.7530746245        6.0430726786       16.7347880966
  N         7.8827791848        5.8725229834        5.9248443265
  N         3.5178756623        5.9644792520        5.9740250261
  N        14.3819570636        5.9516278150       16.8361557498
  N        16.6271707256        5.9642583439       18.9591104110
  N        16.6594600433       16.8209390177        8.1790181485
  N        16.6378523034       16.7830130126        3.8102922353
  N        16.4585100646        6.1760016530       14.5851470639
  N         5.6705704076        5.9402845021        3.7568862181
  N         5.9132998463       16.7855363638       14.6185429286
  N         5.8655068816       16.8002482644       18.9860306013
  N         5.7103865736        5.9208595433        8.1265569343
  C        11.3105573443       15.7628046339       15.7891193233
  H        11.3179336848       14.9802558324       15.0209181626
  C        11.1020761847        4.8150638474        4.8273870551
  H        11.0957681615        4.0648526574        4.0278600449
  C         0.4155835154       15.7345628532        4.9274778431
  H         0.4110853791       14.9635753906        4.1474504532
  C         0.3332162129        4.9700654434       15.6608054788
  H         0.3328419297        4.2014217825       14.8788122882
  C        11.1635762469        6.8710430402       15.6412002514
  H        11.1604563505        7.6172716405       14.8411794751
  C        11.2398150703       17.8331488108        4.9427830163
  H        11.2380031072       18.6229181948        4.1817873465
  C         0.2979146937        7.0415654374        4.9305577185
  H         0.2979721472        7.8089319161        4.1467214550
  C         0.4795948173       17.8792495061       15.7403278497
  H         0.4865991275       18.6539458494       14.9640625993
  C        11.2479670689       15.6772787875        7.0153530769
  H        11.2500258070       14.8876423698        7.7762603099
  C        11.1500297486        4.8781444971       17.8651956423
  H        11.1432981983        4.1418050465       18.6773207368
  C         0.4662264214       15.7693799840       17.8610598217
  H         0.4601137262       14.9964898932       18.6392325731
  C         0.2889835529        4.9512456669        7.0697017424
  H         0.2893174744        4.1843911201        7.8535322765
  C        11.1130654705        6.8479192951        7.0151581891
  H        11.1117168563        7.6078664498        7.8026422064
  C        11.2915204332       17.8990358072       17.8813355016
  H        11.2851280686       18.6814287478       18.6498308255
  C         0.3456983283        7.0634648247       17.7964151206
  H         0.3468926207        7.8311701883       18.5799195651
  C         0.4258454442       17.8366865804        7.0557783975
  H         0.4304045124       18.6083120945        7.8350907725
  C        15.6857160521       11.4514142223       15.7415373504
  H        14.9088251524       11.4666610354       14.9706841134
  C        15.5553384365        0.5527067806        4.9091893487
  H        14.7894671036        0.5359343363        4.1240844653
  C         4.7213323557       11.3602954844        4.9036360077
  H         3.9381161072       11.3724727637        4.1359810316
  C         4.7469722934        0.5393961205       15.7285231647
  H         3.9744628067        0.5181672727       14.9503756505
  C        15.6193797880       11.3864379723        7.0366664088
  H        14.8418526174       11.3865982578        7.8074251603
  C        15.5957177173        0.6175958041       17.8240540894
  H        14.8316779102        0.6110952191       18.6112019573
  C         4.7881099996       11.3886936352       17.8225118233
  H         3.9993344410       11.3956635242       18.5845218643
  C         4.6844551047        0.5109634006        7.0208380630
  H         3.9125144585        0.4971941330        7.7997532830
  C         6.9408916140       11.3702689170       15.7474941075
  H         7.7297016453       11.3652451546       14.9856021180
  C         6.7895071344        0.5375225680        4.8949849164
  H         7.5608198182        0.5514126628        4.1153610006
  C        17.6934319368       11.3939871097        4.8861980429
  H        18.4560469149       11.3979941743        4.0984124004
  C        17.6760462670        0.6391260351       15.6754973653
  H        18.4394771554        0.6450076044       14.8884575884
  C         6.8578684129       11.3269148929        6.9954351994
  H         7.6404303688       11.3154990920        7.7636467089
  C         6.8520905625        0.5850148984       17.8535688367
  H         7.6239638108        0.6073366291       18.6324324987
  C        17.7550323461       11.4311573722       17.8963459458
  H        18.5163141152       11.4224922890       18.6854071504
  C        17.6417827601        0.5968514312        7.0511723544
  H        18.4072266082        0.6130974383        7.8362225501
  C        15.6144473956       15.7936355312       11.4191811836
  H        14.8318192576       15.0255684194       11.4332888973
  C        15.5630666191        4.8708285613        0.5245348141
  H        14.7878561073        4.0948650958        0.5117820412
  C         4.7833564560       15.7372750072        0.5612302099
  H         4.0079343559       14.9617590844        0.5518000478
  C         4.6664154427        4.8825877678       11.3628358042
  H         3.8976195289        4.1006164529       11.3726763548
  C         6.9562517543       15.7157901375       11.3899063784
  H         7.7349639226       14.9437594044       11.3863874195
  C         6.7399479616        4.9004782348        0.5347208728
  H         7.5068134602        4.1162998377        0.5361089556
  C        17.7273388305       15.7573345569        0.5865840681
  H        18.5035342284       14.9824658382        0.5875846721
  C        17.4725868243        5.0811045950       11.3597586655
  H        18.2483024579        4.3043528196       11.3654201628
  C        15.3656128477        7.1885092447       11.3489357078
  H        14.5953431399        7.9658228102       11.3423835450
  C        15.6079251235       17.8690083034        0.5855529412
  H        14.8303521443       18.6424147875        0.5850848500
  C         4.6497279876        7.0410208185        0.5307470756
  H         3.8845682239        7.8265794800        0.5286944183
  C         4.8307014789       17.8201169952       11.3970876256
  H         4.0510883797       18.5917862325       11.4005414629
  C         6.7601242799        7.0182876609       11.3404204464
  H         7.5292947317        7.8000749627       11.3300968414
  C         6.8950386399       17.8544688612        0.5826470070
  H         7.6688071351       18.6317024699        0.5919168511
  C        17.6783893125        6.9909760186        0.5510341991
  H        18.4521628395        7.7682818858        0.5632958266
  C        17.7410494021       17.8960697370       11.3897966153
  H        18.5203411268       18.6676661054       11.3761787739
 Xe        13.0359228299       10.3315474650       11.4572392251
