     409
 i =     176, E =    -5136.7146955609
  N         2.8851556788        5.2044203230       16.0261297103
  C         1.5674646424        5.4743151852       16.2967464580
  N        13.7079130968        5.2086716315        5.2087405557
  C        12.3901280476        5.4785272831        5.4785621924
  N        19.5666680972       17.5818022443       16.0259912546
  C        20.8844143485       17.3107420866       16.2951102553
  N         8.7486978812       17.5811403265        5.2050089462
  C        10.0662605715       17.3101101902        5.4746865568
  N        19.5709923186        5.2044516099        6.7604366715
  C        20.8885896461        5.4735198382        6.4892386078
  N         8.7484750297        5.2050114032       17.5810414355
  C        10.0661053387        5.4746983729       17.3100602579
  N         2.8854584408       17.5815894155        6.7607543178
  C         1.5677969854       17.3120447268        6.4903706229
  N        13.7034941751       17.5802627206       17.5802386249
  C        12.3859050137       17.3100604700       17.3100622791
  N        15.8596435414        3.0548601526        5.2084155625
  C        16.1291963787        1.7368344761        5.4779538657
  N        15.8585775284       13.8719664043       16.0244457088
  C        16.1296569802       12.5542227885       16.2937630906
  N        15.8562074816       19.7356474017       17.5809782994
  C        16.1261736616       21.0533509018       17.3103827931
  N        15.8593848711        8.9177883688        6.7619904807
  C        16.1279082587       10.2350453249        6.4893750556
  N         6.5955372745       19.7357531542        5.2048287654
  C         6.3254295186       21.0535598067        5.4748339609
  N         6.5942070230        8.9151284238       16.0254683792
  C         6.3233001628       10.2327527284       16.2950892080
  N         6.5948646786        3.0516334911       17.5809718731
  C         6.3248367168        1.7340392582       17.3104749849
  N         6.5940312115       13.8726897027        6.7614814667
  C         6.3241859162       12.5550027095        6.4912344283
  N         5.0390816602       16.0253570348        3.0521113208
  C         5.3092436821       16.2949845884        1.7342384537
  N         5.0383853305        5.2054563690       13.8725856952
  C         5.3086764056        5.4754049270       12.5548415282
  N        17.4121623442       16.0245284747       19.7353936996
  C        17.1417692353       16.2943478801       21.0531920153
  N        17.4209456794        5.2112478967        8.9170141470
  C        17.1480636634        5.4782959369       10.2348013610
  N         5.0382303354        6.7602585664       19.7362102490
  C         5.3088924774        6.4900147657       21.0537153422
  N         5.0384113425       17.5819159499        8.9149969590
  C         5.3078137363       17.3109995252       10.2326479741
  N        17.4144980705        6.7649212041        3.0537561095
  C        17.1442691357        6.4940150769        1.7361496993
  N        17.4141039602       17.5804169554       13.8723636413
  C        17.1451160284       17.3096169577       12.5545350167
  N         5.0411935601        3.0529218886        6.7612404172
  C         5.3104334180        1.7352180529        6.4904194943
  N         5.0371653538       13.8717837099       17.5808543291
  C         5.3071371063       12.5541045906       17.3105465013
  N        17.4139079399       19.7368562849        6.7626651887
  C        17.1438416037       21.0545902966        6.4927776716
  N        17.4155021653        8.9157121822       17.5810303480
  C        17.1456969879       10.2331256094       17.3098516545
  N         5.0373790070       19.7352484059       16.0247285588
  C         5.3083507302       21.0528770780       16.2946152179
  N         5.0395336923        8.9155432555        5.2054241023
  C         5.3093441985       10.2333338930        5.4754592781
  N        17.4129049916        3.0524522791       16.0253040980
  C        17.1420865179        1.7347750711       16.2947326969
  N        17.4190784937       13.8737717898        5.2082911389
  C        17.1478528311       12.5560071416        5.4773362884
  N         2.8834714491       16.0248592879       17.5808087033
  C         1.5657790470       16.2945320679       17.3101879437
  N        13.7049492867       16.0250708670        6.7622447848
  C        12.3873851825       16.2943258183        6.4908905573
  N        19.5684792710       16.0288843222        5.2036491924
  C        20.8862043206       16.2982610969        5.4740145158
  N         8.7466502587       16.0246612522       16.0245228747
  C        10.0644406507       16.2945483980       16.2944933586
  N        19.5690309069        6.7608391497       17.5836308496
  C        20.8864888189        6.4904326963       17.3132048526
  N         8.7507351504        6.7633815269        6.7633398235
  C        10.0684385696        6.4935558008        6.4935339234
  N         2.8874845859        6.7604249992        5.2046100594
  C         1.5698403650        6.4893113828        5.4736295076
  N        13.7048112380        6.7621945675       16.0250442539
  C        12.3872015475        6.4908577577       16.2943274203
  N        15.8578935962        5.2058828380       19.7374942463
  C        16.1283333255        5.4765595656       21.0551118385
  N        15.8596413521       16.0245033346        8.9150412366
  C        16.1303133034       16.2938255409       10.2328188982
  N        15.8579526111       17.5818113831        3.0525941130
  C        16.1269899330       17.3107145409        1.7348297417
  N        15.8582290894        6.7590417136       13.8737421408
  C        16.1282585116        6.4890715968       12.5561858563
  N         6.5980247008        5.2066844891        3.0528105281
  C         6.3267865467        5.4756448533        1.7350383911
  N         6.5928992742       16.0249597953       13.8719446694
  C         6.3227500617       16.2948412744       12.5541726557
  N         6.5938328475       17.5807919994       19.7348063477
  C         6.3242795283       17.3103139387       21.0524973578
  N         6.5953310425        6.7620060708        8.9162697093
  C         6.3247622742        6.4915124567       10.2337257432
  N        19.5691983740       17.5836185754        6.7608560777
  C        20.8866584546       17.3132171054        6.4904249292
  N         8.7471623172       17.5805792012       17.5804236264
  C        10.0646837873       17.3102151785       17.3101514805
  N         2.8875156494        5.2046169212        6.7604047086
  C         1.5698194844        5.4736537386        6.4892793311
  N        13.7051448534        5.2064458242       17.5812312789
  C        12.3874755190        5.4753569204       17.3101877906
  N         2.8834413460       17.5808371822       16.0248117170
  C         1.5657884657       17.3102150323       16.2944977126
  N        13.7053419834       17.5812537706        5.2065001905
  C        12.3876266124       17.3101864688        5.4753905163
  N        19.5683112511        5.2036367945       16.0289153790
  C        20.8860311948        5.4740274392       16.2982586012
  N         8.7511705350        5.2073803963        5.2073241687
  C        10.0687981515        5.4778545253        5.4778273976
  N         6.5938116218       19.7348913002       17.5806288857
  C         6.3242134589       21.0525493021       17.3102050220
  N         6.5953281675        8.9163087874        6.7619459494
  C         6.3247939803       10.2337782961        6.4914555467
  N         6.5980923191        3.0528776772        5.2064961014
  C         6.3268384693        1.7350612349        5.4755011817
  N         6.5928448964       13.8720080400       16.0248643795
  C         6.3226884788       12.5542397075       16.2947785349
  N        15.8577063190        3.0524900620       17.5818689929
  C        16.1268200043        1.7347171815       17.3107805538
  N        15.8583223514       13.8736920466        6.7591383478
  C        16.1283410464       12.5561060919        6.4891412356
  N        15.8580855993       19.7374028995        5.2060107931
  C        16.1284627854       21.0550052146        5.4766836658
  N        15.8595722532        8.9149921218       16.0245335236
  C        16.1302388207       10.2327485980       16.2938599249
  N        17.4137160650        6.7625313279       19.7368760624
  C        17.1437154570        6.4926530484       21.0546096595
  N        17.4155855821       17.5809938243        8.9157934193
  C        17.1457809713       17.3098143223       10.2331849963
  N         5.0411075857        6.7614101634        3.0528500623
  C         5.3103668834        6.4905558888        1.7351031331
  N         5.0372148922       17.5809376168       13.8716907903
  C         5.3071840041       17.3106160050       12.5540229839
  N        17.4131408649       16.0252129121        3.0524911812
  C        17.1422532370       16.2946446600        1.7348119846
  N        17.4189647216        5.2081886579       13.8738418314
  C        17.1477617665        5.4772592973       12.5560631491
  N         5.0374088337       16.0249120564       19.7351844184
  C         5.3084150289       16.2947308384       21.0527727394
  N         5.0395395738        5.2054821085        8.9154553666
  C         5.3093202013        5.4755218573       10.2332454477
  N        17.4120575545       19.7353449340       16.0246003461
  C        17.1416650031       21.0531126025       16.2944263648
  N        17.4209405576        8.9169301601        5.2112969732
  C        17.1480895750       10.2347198059        5.4783568357
  N         5.0389239864        3.0521612274       16.0252398889
  C         5.3091025185        1.7342762767       16.2948887277
  N         5.0384740767       13.8726490594        5.2053424659
  C         5.3087665581       12.5549099873        5.4753350423
  N        17.4145667879        3.0536884832        6.7650667443
  C        17.1443369722        1.7360460162        6.4941451440
  N        17.4141389351       13.8722849779       17.5804191297
  C        17.1450991758       12.5544518915       17.3096488849
  N         5.0384369028       19.7362474499        6.7601422379
  C         5.3090273712       21.0537371885        6.4898944906
  N         5.0382512658        8.9150727361       17.5817965612
  C         5.3076989094       10.2327361563       17.3109287175
  N        19.5709519608        6.7604017228        5.2044780994
  C        20.8885868787        6.4892134122        5.4735416371
  N         8.7481298779        6.7608265158       16.0249255193
  C        10.0658310563        6.4902489962       16.2942175848
  N         2.8852940141        6.7608578197       17.5814597126
  C         1.5676316139        6.4904514853       17.3119699481
  N        13.7073542171        6.7644313285        6.7644705896
  C        12.3897625286        6.4941799088        6.4942001825
  N         2.8853016385       16.0262518209        5.2042898559
  C         1.5676524447       16.2968278656        5.4742321724
  N        13.7038221572       16.0242997323       16.0242611605
  C        12.3859438752       16.2943630618       16.2943598373
  N        19.5667063115       16.0259372182       17.5818284573
  C        20.8844332707       16.2950736817       17.3107650437
  N         8.7482691649       16.0249948010        6.7608494777
  C        10.0659981939       16.2942607930        6.4902424145
  N         6.5950644467       17.5811014231        3.0515173972
  C         6.3250000830       17.3105730826        1.7339457263
  N         6.5939265312        6.7615584759       13.8726355234
  C         6.3241047257        6.4913003011       12.5549184332
  N         6.5953072405        5.2049766689       19.7356175272
  C         6.3252926818        5.4749621340       21.0534438866
  N         6.5943783687       16.0255674267        8.9150928325
  C         6.3234110946       16.2951571928       10.2326765385
  N        15.8563187110       17.5809029824       19.7357116929
  C        16.1262749425       17.3103122589       21.0533852647
  N        15.8593849494        6.7619384557        8.9178275541
  C        16.1278786396        6.4893160318       10.2350905931
  N        15.8595861249        5.2082486068        3.0549361925
  C        16.1291357444        5.4778155016        1.7368763994
  N        15.8585503668       16.0244399344       13.8720047624
  C        16.1296748376       16.2937282341       12.5542799258
 Zn        14.5638467377       14.7299237056       14.7299569800
 Br        13.2526534550       13.4141576624       13.4141827641
 Zn        14.5654479167        3.9146022603        3.9147309915
 Br        13.2515691987        2.6000055300        2.6001207733
 Zn         3.7443524763       14.7312024142        3.9104802290
 Br         2.4308787066       13.4166539184        2.5958075233
 Zn         3.7442195551        3.9105500715       14.7311132577
 Br         2.4307401774        2.5959075288       13.4165486770
 Zn         7.8886580465        8.0548726205       14.7309143643
 Br         9.2046874463        9.3694145399       13.4186086330
 Zn         7.8893943648       18.8748990103        3.9102220389
 Br         9.2037870296       20.1901179441        2.5970409182
 Zn        18.7109463949        8.0561373454        3.9128152452
 Br        20.0246798740        9.3713706138        2.5988293911
 Zn        18.7076513275       18.8749793345       14.7309905740
 Br        20.0218349221       20.1900373135       13.4174513749
 Zn         7.8887621251       14.7309632806        8.0548467583
 Br         9.2047720309       13.4186372595        9.3693925137
 Zn         7.8892607656        3.9102665655       18.8748477029
 Br         9.2035979246        2.5970597426       20.1900800156
 Zn        18.7076632345       14.7309135698       18.8749955981
 Br        20.0218479377       13.4173598622       20.1900425985
 Zn        18.7109608365        3.9127958393        8.0561897971
 Br        20.0246854622        2.5988272812        9.3714412382
 Zn        14.5675233497        8.0581421918        8.0581685010
 Br        13.2463616065        9.3691235260        9.3691473465
 Zn        14.5621604017       18.8745834797       18.8746481158
 Br        13.2474739856       20.1886597966       20.1887635533
 Zn         3.7439549622        8.0544495724       18.8755235130
 Br         2.4291702279        9.3686515952       20.1893996437
 Zn         3.7440798013       18.8755629924        8.0543945413
 Br         2.4293063818       20.1894898685        9.3685668305
 Zn        14.5650115773       14.7300692153        8.0548018558
 Br        13.2594294815       13.4092810159        9.3712785149
 Zn        14.5637697538        3.9118838196       18.8755465071
 Br        13.2492099536        2.5975132638       20.1895030928
 Zn         3.7428768749       14.7304686004       18.8747143536
 Br         2.4286524140       13.4165661108       20.1893232528
 Zn         3.7457427722        3.9106122690        8.0545999176
 Br         2.4315663307        2.5960306350        9.3686365884
 Zn         7.8895405185        8.0563438577        8.0563161779
 Br         9.1998117298        9.3726783778        9.3726476639
 Zn         7.8884067262       18.8745220659       18.8744489850
 Br         9.2021176029       20.1891060926       20.1889952802
 Zn        18.7089828140        8.0553909880       18.8759334642
 Br        20.0217131817        9.3705817606       20.1909402766
 Zn        18.7091044983       18.8758947773        8.0554371414
 Br        20.0218610104       20.1908489316        9.3706616937
 Zn        14.5648916767        8.0547712570       14.7300958641
 Br        13.2593480329        9.3712600046       13.4092948884
 Zn        14.5639136969       18.8755034695        3.9119457363
 Br        13.2494073666       20.1894724386        2.5975318499
 Zn         3.7457421863        8.0546633285        3.9105719305
 Br         2.4315629512        9.3687260113        2.5960127805
 Zn         3.7428686729       18.8747513206       14.7303621412
 Br         2.4286499330       20.1893536674       13.4164454441
 Zn         7.8872760954       14.7303242486       14.7302682863
 Br         9.2019423016       13.4162809412       13.4162473894
 Zn         7.8918466373        3.9128017824        3.9127012376
 Br         9.2074591969        2.5991937260        2.5990754877
 Zn        18.7096001304       14.7328370043        3.9108170099
 Br        20.0244546989       13.4188819629        2.5968877001
 Zn        18.7094802213        3.9107492439       14.7329256078
 Br        20.0243132263        2.5967933736       13.4189896051
 Zn         5.8175630286        5.9872691296       16.8083393369
 Zn        16.6342884024       16.8076381440       16.8077663174
 Zn        16.6422323583        5.9912020080        5.9912706907
 Zn         5.8179127137       16.8083988280        5.9871632855
 Zn         5.8220943948        5.9886582818        5.9885716706
 Zn        16.6383686486       16.8093571502        5.9881910735
 Zn         5.8143441575       16.8073701366       16.8073009776
 Zn        16.6380176336        5.9881035639       16.8094686142
  N         3.6319834955        5.9826696287       16.8036540794
  N        14.4545104880        5.9868390474        5.9869104887
  N        18.8199604894       16.8045955196       16.8046859216
  N         8.0017770048       16.8036908083        5.9832909006
  N        18.8243703012        5.9832169579        5.9832849910
  N         8.0016105690        5.9834638551       16.8037374052
  N         3.6321961519       16.8036652187        5.9826264196
  N        14.4502375907       16.8023361946       16.8026236836
  N        16.6372420340        3.8011802373        5.9869830779
  N        16.6356340161       14.6189337856       16.8030616070
  N        16.6345820225       18.9890311165       16.8030960925
  N        16.6414408270        8.1707941020        5.9882470947
  N         5.8167294988       18.9894382175        5.9828336667
  N         5.8168356064        8.1685584934       16.8041826467
  N         5.8169132944        3.7987886663       16.8037361983
  N         5.8161070657       14.6196169116        5.9834407679
  N         5.8171558697       16.8036812504        3.7987245181
  N         5.8159121094        5.9834735997       14.6195156978
  N        16.6344506036       16.8029495120       18.9891045325
  N        16.6414357502        5.9882208315        8.1708667345
  N         5.8166451822        5.9828410132       18.9893751669
  N         5.8168982295       16.8041311477        8.1684495130
  N        16.6373019578        5.9869401941        3.8012611215
  N        16.6357137035       16.8029182775       14.6190132765
  N         5.8200653296        3.7998001887        5.9845623105
  N         5.8152031750       14.6187974749       16.8031744511
  N        16.6358161611       18.9905309250        5.9841245553
  N        16.6371552405        8.1687548749       16.8036458587
  N         5.8151924370       18.9885224066       16.8032726003
  N         5.8176050675        8.1694042742        5.9838185310
  N        16.6361481270        3.7994272694       16.8040628835
  N        16.6388869468       14.6207347342        5.9842222344
  N         3.6301453170       16.8034057779       16.8033063470
  N        14.4520364177       16.8037535149        5.9850558625
  N        18.8220765960       16.8064531536        5.9823026337
  N         8.0000765001       16.8026577264       16.8027829752
  N        18.8218892854        5.9821415211       16.8066120893
  N         8.0043359699        5.9854104713        5.9853395393
  N         3.6344274899        5.9832341546        5.9831049510
  N        14.4518442319        5.9850519799       16.8039532188
  N        16.6356825176        5.9841243374       18.9906063016
  N        16.6374272850       16.8035102388        8.1688247443
  N        16.6362317368       16.8039774052        3.7995166901
  N        16.6386912093        5.9841702760       14.6208035259
  N         5.8201770486        5.9845755479        3.7997218937
  N         5.8151068737       16.8031235502       14.6187117279
  N         5.8152372296       16.8031982272       18.9884396275
  N         5.8175893922        5.9838456727        8.1693209174
  C        11.2252018397       15.7447714560       15.7447912549
  H        11.2249559565       14.9692979026       14.9692896956
  C        11.2297715193        4.9285402866        4.9285467322
  H        11.2302812895        4.1530595533        4.1530694269
  C         0.4066635274       15.7481765908        4.9240923265
  H         0.4060883940       14.9730438339        4.1481772120
  C         0.4065092310        4.9241276486       15.7481442167
  H         0.4059186723        4.1482268801       14.9730036425
  C        11.2264290026        7.0399313896       15.7442897266
  H        11.2260206004        7.8153350818       14.9686903025
  C        11.2270743191       17.8597364570        4.9252822335
  H        11.2272673489       18.6355555526        4.1500650145
  C         0.4091761173        7.0387492315        4.9236522357
  H         0.4091185010        7.8144770438        4.1483458172
  C         0.4050764538       17.8600282597       15.7449760548
  H         0.4050425990       18.6356465839       14.9695755223
  C        11.2265641892       15.7442901587        7.0399243410
  H        11.2261228277       14.9686928580        7.8153463350
  C        11.2268949546        4.9252856743       17.8597369968
  H        11.2270368879        4.1500551312       18.6355481678
  C         0.4051212782       15.7449838170       17.8600128907
  H         0.4051345821       14.9695892264       18.6356197372
  C         0.4092061515        4.9236584664        7.0387383347
  H         0.4091958700        4.1483574310        7.8144572186
  C        11.2287830357        7.0435988972        7.0435951841
  H        11.2286318135        7.8191559488        7.8191489768
  C        11.2254058352       17.8598125918       17.8598283923
  H        11.2254728928       18.6353564497       18.6353416376
  C         0.4073648161        7.0404373920       17.8619891824
  H         0.4078579090        7.8163954491       18.6370337315
  C         0.4075124023       17.8620163221        7.0404009911
  H         0.4080269498       18.6370748539        7.8163545925
  C        15.5806824091       11.3933950801       15.7437566191
  H        14.8054800451       11.3930885329       14.9679530699
  C        15.5794496170        0.5764436467        4.9274421265
  H        14.8042365076        0.5771965667        4.1516112477
  C         4.7595449686       11.3939771974        4.9255612223
  H         3.9842367332       11.3936836120        4.1498228522
  C         4.7591325591        0.5738510179       15.7451176714
  H         3.9835609711        0.5742089248       14.9697443285
  C        15.5755749629       11.3956331430        7.0358953413
  H        14.7975883479       11.3958232295        7.8088865513
  C        15.5769562389        0.5740900459       17.8602599496
  H        14.8018055963        0.5741808731       18.6360501850
  C         4.7577486446       11.3933842838       17.8603930545
  H         3.9823847181       11.3932915796       18.6360352640
  C         4.7595480308        0.5747208197        7.0393233580
  H         3.9835168149        0.5750832017        7.8143755216
  C         6.8725097245       11.3935795408       15.7451321003
  H         7.6480036001       11.3936416862       14.9696207689
  C         6.8760962435        0.5741817649        4.9259088929
  H         7.6523221146        0.5738428747        4.1511696588
  C        17.6997633360       11.3952444584        4.9302349099
  H        18.4782586504       11.3949341616        4.1577611735
  C        17.6912667857        0.5739041272       15.7446219134
  H        18.4666988129        0.5738172623       14.9689722482
  C         6.8739524672       11.3946065131        7.0411916531
  H         7.6491052823       11.3947542124        7.8170396896
  C         6.8743276294        0.5731208903       17.8599366791
  H         7.6498564520        0.5727327357       18.6355147609
  C        17.6950932211       11.3940585599       17.8594033765
  H        18.4702921494       11.3942359605       18.6352379408
  C        17.6933926976        0.5749625358        7.0433308613
  H        18.4684690346        0.5741821216        7.8192402424
  C        15.5807554423       15.7437115549       11.3934215587
  H        14.8055457066       14.9679229716       11.3931101014
  C        15.5793805222        4.9273333182        0.5765208641
  H        14.8041897462        4.1515249473        0.5773072094
  C         4.7592351076       15.7451914786        0.5738090707
  H         3.9836278889       14.9698135941        0.5741912469
  C         4.7594752702        4.9256187196       11.3939041430
  H         3.9841525550        4.1498799215       11.3935758443
  C         6.8725704788       15.7451804093       11.3935406336
  H         7.6480806981       14.9696806082       11.3936078172
  C         6.8760419432        4.9260187907        0.5741052119
  H         7.6522995800        4.1512490088        0.5737268466
  C        17.6913577480       15.7445423464        0.5739348722
  H        18.4667882032       14.9689076939        0.5738335706
  C        17.6996904861        4.9301752967       11.3953138895
  H        18.4781651418        4.1577110611       11.3950324767
  C        15.5755114119        7.0358427316       11.3956611939
  H        14.7975174221        7.8088435021       11.3958510243
  C        15.5770640276       17.8601936145        0.5741716995
  H        14.8019051396       18.6360256350        0.5743014857
  C         4.7594766041        7.0394278472        0.5746823213
  H         3.9834715073        7.8144476905        0.5750607837
  C         4.7578105227       17.8604403799       11.3932993656
  H         3.9824557183       18.6361050919       11.3931748941
  C         6.8738923660        7.0412439498       11.3945698801
  H         7.6490327413        7.8170787711       11.3947200130
  C         6.8744480958       17.8599987293        0.5730428921
  H         7.6499609881       18.6355686158        0.5726098413
  C        17.6933220959        7.0432279702        0.5750033286
  H        18.4684261590        7.8191624954        0.5742068249
  C        17.6951690021       17.8593513343       11.3941274840
  H        18.4703658935       18.6351953967       11.3943449994
 Kr        17.2224841879       10.1707612875       10.1708448415
