     409
 i =     176, E =    -5136.7152797447
  N         2.8988480548        5.1974797905       16.0176472130
  C         1.5807968176        5.4665434304       16.2876489091
  N        13.7086808293        5.1916214700        5.1916726587
  C        12.3913359749        5.4625475594        5.4625746977
  N        19.5855068574       17.5735544888       16.0171492284
  C        20.9033841322       17.3043157160       16.2885729886
  N         8.7609519643       17.5738044341        5.2006368812
  C        10.0785799743       17.3032072367        5.4710775646
  N        19.5740371919        5.1929589501        6.7490431378
  C        20.8916323456        5.4646904365        6.4804131522
  N         8.7607832406        5.2006911396       17.5737374371
  C        10.0784507953        5.4711092552       17.3031701859
  N         2.8975745306       17.5730995225        6.7541121586
  C         1.5800346252       17.3031623485        6.4824280085
  N        13.7253350670       17.5705823930       17.5706614833
  C        12.4072237941       17.3010504357       17.3010900759
  N        15.8639304596        3.0390614830        5.1939848829
  C        16.1341190962        1.7217049373        5.4656235472
  N        15.8810166414       13.8612901237       16.0117280062
  C        16.1513315252       12.5436868963       16.2799548577
  N        15.8764481582       19.7251304011       17.5702613637
  C        16.1438229572       21.0430016932       17.2986091597
  N        15.8627113778        8.9026505022        6.7524741375
  C        16.1357356111       10.2201075152        6.4844684850
  N         6.6054782657       19.7274529500        5.2009259822
  C         6.3334521930       21.0447912686        5.4700443185
  N         6.6049900754        8.9087404006       16.0154714903
  C         6.3360712435       10.2263233938       16.2861916322
  N         6.6080580421        3.0462278907       17.5756761400
  C         6.3387390797        1.7283695622       17.3061661703
  N         6.6062410930       13.8618923869        6.7548755336
  C         6.3343811448       12.5446717686        6.4845605256
  N         5.0535590502       16.0190089435        3.0448008862
  C         5.3237868531       16.2900460428        1.7274579789
  N         5.0513622647        5.1980277312       13.8639364339
  C         5.3191530442        5.4684294712       12.5459647198
  N        17.4293661022       16.0122639238       19.7259990639
  C        17.1580623917       16.2815029505       21.0435822314
  N        17.4211435960        5.1992333265        8.9018018377
  C        17.1532256918        5.4706010021       10.2194937393
  N         5.0498734317        6.7570254134       19.7261668222
  C         5.3179127557        6.4860075026       21.0440374935
  N         5.0505160412       17.5725175865        8.9090163551
  C         5.3213344361       17.3027525070       10.2265747212
  N        17.4178682003        6.7523000532        3.0405979509
  C        17.1483000294        6.4827669245        1.7227702403
  N        17.4338103965       17.5701945850       13.8601475845
  C        17.1648674313       17.2977377333       12.5429092517
  N         5.0433239826        3.0431836105        6.7538396511
  C         5.3146803882        1.7255049946        6.4844500210
  N         5.0563334339       13.8657091056       17.5751009140
  C         5.3241089453       12.5477974129       17.3039333807
  N        17.4229169482       19.7239347668        6.7526406657
  C        17.1509513683       21.0414276332        6.4830513685
  N        17.4300628566        8.9037934963       17.5678515627
  C        17.1630119671       10.2218062359       17.2964878130
  N         5.0573826622       19.7286913796       16.0194781938
  C         5.3256839276       21.0464993977       16.2902477320
  N         5.0447789700        8.9072979482        5.1966712789
  C         5.3159023140       10.2247383005        5.4675350796
  N        17.4243981175        3.0423961227       16.0096476861
  C        17.1554062475        1.7246802583       16.2802545281
  N        17.4278890853       13.8577484714        5.2000060118
  C        17.1566340370       12.5404187781        5.4707643615
  N         2.9035135589       16.0196623849       17.5758509796
  C         1.5855833314       16.2896812493       17.3053927177
  N        13.7181999758       16.0157580859        6.7565101435
  C        12.4002539030       16.2867598802        6.4871163056
  N        19.5815871191       16.0153609087        5.1945445823
  C        20.8991450465       16.2866769903        5.4649684885
  N         8.7654339345       16.0178656264       16.0178043345
  C        10.0836238727       16.2873044443       16.2872778245
  N        19.5799666219        6.7497400067       17.5727395295
  C        20.8980149958        6.4802998418       17.3028531203
  N         8.7541857415        6.7518382952        6.7517896329
  C        10.0714739282        6.4804776885        6.4804588639
  N         2.8908862739        6.7536210154        5.1976116255
  C         1.5730964633        6.4827391539        5.4670109115
  N        13.7180842757        6.7564585766       16.0158071409
  C        12.4001406150        6.4871085563       16.2867697127
  N        15.8696550995        5.1944101652       19.7222057970
  C        16.1368074829        5.4656900455       21.0403050068
  N        15.8781725546       16.0085543210        8.9056961114
  C        16.1499163952       16.2782648183       10.2230132149
  N        15.8701580323       17.5668706570        3.0419785179
  C        16.1408908455       17.2968802813        1.7243304949
  N        15.8691589001        6.7532318692       13.8594808066
  C        16.1389180959        6.4845703780       12.5415338478
  N         6.5986352940        5.1971687110        3.0432818607
  C         6.3299565330        5.4684540559        1.7257151780
  N         6.6100408182       16.0176487952       13.8645716822
  C         6.3386749013       16.2872525371       12.5471872230
  N         6.6121919609       17.5759938878       19.7294524789
  C         6.3409636333       17.3064368800       21.0470615037
  N         6.6007733380        6.7523763650        8.9053150859
  C         6.3314915223        6.4833238155       10.2233426588
  N        19.5800691369       17.5726850448        6.7497853203
  C        20.8981900485       17.3028605776        6.4803125551
  N         8.7671572553       17.5743515682       17.5742632732
  C        10.0848725834       17.3031046262       17.3030677801
  N         2.8909182536        5.1976740906        6.7535447610
  C         1.5731144653        5.4670491830        6.4826966788
  N        13.7179980172        5.1981049463       17.5693878781
  C        12.4002074419        5.4701346249       17.3011937113
  N         2.9034822317       17.5759061982       16.0195871266
  C         1.5855616410       17.3054281636       16.2896383247
  N        13.7182092970       17.5693402547        5.1981420730
  C        12.4003404860       17.3011875864        5.4701332159
  N        19.5814468151        5.1945109605       16.0154184648
  C        20.8989886579        5.4649641672       16.2866736205
  N         8.7520988074        5.1957310813        5.1956669004
  C        10.0700637076        5.4647965501        5.4647708045
  N         6.6121570582       19.7295743825       17.5758773794
  C         6.3408684528       21.0471588240       17.3063378690
  N         6.6007903675        8.9053686638        6.7523141725
  C         6.3315396297       10.2234201022        6.4832685170
  N         6.5986415116        3.0433916211        5.1970545434
  C         6.3300027169        1.7258053918        5.4683399989
  N         6.6100260691       13.8646328456       16.0175829469
  C         6.3386328802       12.5472691390       16.2871911185
  N        15.8699344659        3.0418825663       17.5669558627
  C        16.1407185911        1.7242877095       17.2969567421
  N        15.8692753120       13.8594324919        6.7533039988
  C        16.1390230953       12.5414581031        6.4846419795
  N        15.8698346961       19.7221320615        5.1944943723
  C        16.1369386948       21.0402597929        5.4657879227
  N        15.8780721484        8.9056207369       16.0086438846
  C        16.1498091422       10.2229361170       16.2783448336
  N        17.4227804258        6.7525131524       19.7239704486
  C        17.1508472185        6.4829362967       21.0414534553
  N        17.4301755530       17.5677557879        8.9038554095
  C        17.1631201963       17.2963999669       10.2219114465
  N         5.0433004184        6.7539503861        3.0430969928
  C         5.3146369397        6.4845509383        1.7254363465
  N         5.0563457506       17.5751707816       13.8656227945
  C         5.3241448509       17.3040085783       12.5476948901
  N        17.4245822524       16.0095327235        3.0424280859
  C        17.1555563582       16.2801662550        1.7247233668
  N        17.4277609176        5.1999307906       13.8578126693
  C        17.1565289248        5.4706860313       12.5405053191
  N         5.0574412551       16.0195847480       19.7285972479
  C         5.3257793649       16.2903292980       21.0464188159
  N         5.0447654512        5.1967310237        8.9072144903
  C         5.3158626403        5.4676021704       10.2246438103
  N        17.4293169079       19.7259591840       16.0123502352
  C        17.1579748588       21.0435384687       16.2815828678
  N        17.4211522649        8.9017172192        5.1992827188
  C        17.1532719152       10.2194114677        5.4706691877
  N         5.0533609496        3.0448981842       16.0189288769
  C         5.3236202932        1.7275404071       16.2899757613
  N         5.0515153228       13.8640088065        5.1979552270
  C         5.3192611786       12.5460577662        5.4683600637
  N        17.4178872203        3.0405650251        6.7524017034
  C        17.1483360788        1.7227442276        6.4828635881
  N        17.4337900543       13.8600682291       17.5702428503
  C        17.1648152197       12.5428172089       17.2978160952
  N         5.0500395132       19.7262511006        6.7569166338
  C         5.3180294805       21.0441130155        6.4859053271
  N         5.0503672661        8.9091015128       17.5724460084
  C         5.3212325163       10.2266743764       17.3026795414
  N        19.5739985892        6.7489726842        5.1930019211
  C        20.8916179418        6.4803868433        5.4647047773
  N         8.7604916780        6.7572327020       16.0175394759
  C        10.0782757193        6.4872847112       16.2878276647
  N         2.8974214619        6.7542188748       17.5730045566
  C         1.5798592693        6.4825005422       17.3030951845
  N        13.7108221734        6.7473113771        6.7473558535
  C        12.3927868565        6.4781967434        6.4782224101
  N         2.8989800971       16.0177396856        5.1973672632
  C         1.5809727823       16.2877230777        5.4664754953
  N        13.7236591040       16.0142923680       16.0143420469
  C        12.4059210427       16.2853085846       16.2853366118
  N        19.5855210670       16.0171112358       17.5735673177
  C        20.9034074088       16.2885546816       17.3043237351
  N         8.7606108311       16.0176014584        6.7571766137
  C        10.0783755803       16.2878699825        6.4872455146
  N         6.6082369612       17.5757670782        3.0460939857
  C         6.3389003500       17.3062474253        1.7282774490
  N         6.6061205338        6.7549380524       13.8618461200
  C         6.3342827044        6.4846171711       12.5445911376
  N         6.6053300431        5.2010420121       19.7273179038
  C         6.3333395832        5.4701546881       21.0447061424
  N         6.6051012308       16.0155259685        8.9086919987
  C         6.3361598148       16.2862492550       10.2262343958
  N        15.8764937545       17.5701709373       19.7252105302
  C        16.1439220054       17.2985218261       21.0430636914
  N        15.8626925418        6.7524107249        8.9027022337
  C        16.1356756002        6.4844055271       10.2201810847
  N        15.8639097020        5.1938911753        3.0391174754
  C        16.1340665319        5.4655247519        1.7217605307
  N        15.8810466750       16.0116726958       13.8613551098
  C        16.1513967331       16.2798843124       12.5437598934
 Zn        14.5880407215       14.7205262239       14.7205632261
 Br        13.2756175655       13.4045784155       13.4046023832
 Zn        14.5694636289        3.8990848117        3.8991487068
 Br        13.2588617543        2.5828791446        2.5829700936
 Zn         3.7613184978       14.7242862478        3.9029816246
 Br         2.4456092554       13.4117556790        2.5879190664
 Zn         3.7610801409        3.9030549098       14.7242112264
 Br         2.4454210421        2.5880032843       13.4116302248
 Zn         7.8980966857        8.0499152641       14.7218610959
 Br         9.2132809271        9.3642525390       13.4083716448
 Zn         7.8991684888       18.8699052398        3.9071091391
 Br         9.2155803659       20.1838122789        2.5943865603
 Zn        18.7127548534        8.0449226393        3.9018103659
 Br        20.0266074091        9.3600511851        2.5879536573
 Zn        18.7227075215       18.8668355429       14.7211315245
 Br        20.0385963818       20.1798158587       13.4066779442
 Zn         7.8981740790       14.7219107174        8.0498629455
 Br         9.2133486030       13.4084181986        9.3642087598
 Zn         7.8990365278        3.9071762743       18.8698338320
 Br         9.2154026888        2.5944295399       20.1837557737
 Zn        18.7227393758       14.7210589845       18.8668415214
 Br        20.0386244138       13.4065914102       20.1798130447
 Zn        18.7127734219        3.9018026689        8.0450119752
 Br        20.0266136563        2.5879361676        9.3601470049
 Zn        14.5656189828        8.0426330370        8.0426864667
 Br        13.2224753391        9.3423850816        9.3424151540
 Zn        14.5883834098       18.8656035900       18.8657232240
 Br        13.2700138199       20.1781995394       20.1783407601
 Zn         3.7565531649        8.0504476053       18.8666187233
 Br         2.4411239887        9.3647944554       20.1797440941
 Zn         3.7567757507       18.8667097936        8.0503711430
 Br         2.4412966564       20.1798265809        9.3646842934
 Zn        14.5795886846       14.7203332122        8.0492799422
 Br        13.2560691316       13.4079129203        9.3569935104
 Zn        14.5771325676        3.9015379145       18.8614840281
 Br        13.2619705926        2.5858632652       20.1737915506
 Zn         3.7667444970       14.7251509478       18.8701894073
 Br         2.4494676048       13.4121251235       20.1833542017
 Zn         3.7492921260        3.9035420517        8.0486792617
 Br         2.4349869397        2.5894118396        9.3629454175
 Zn         7.8940939689        8.0465849034        8.0465372137
 Br         9.2019729266        9.3639106678        9.3638782789
 Zn         7.9038132365       18.8694885869       18.8693669339
 Br         9.2210832526       20.1825020799       20.1823785084
 Zn        18.7178114734        8.0446083889       18.8666987971
 Br        20.0327345471        9.3581267004       20.1813346937
 Zn        18.7179174651       18.8666340310        8.0447224352
 Br        20.0328669782       20.1812416301        9.3582470870
 Zn        14.5794598605        8.0492392485       14.7203661825
 Br        13.2559873837        9.3569714873       13.4079321445
 Zn        14.5774343108       18.8614339401        3.9015653490
 Br        13.2622275803       20.1737290085        2.5859048099
 Zn         3.7492645831        8.0487717599        3.9035048571
 Br         2.4349925239        9.3630646386        2.5893660333
 Zn         3.7666849167       18.8702274188       14.7250579854
 Br         2.4494416219       20.1833861416       13.4119956146
 Zn         7.9018730860       14.7237714391       14.7237258553
 Br         9.2194031655       13.4108285069       13.4107912247
 Zn         7.8918503121        3.9021706111        3.9020819427
 Br         9.2059833369        2.5878007277        2.5877054299
 Zn        18.7189154701       14.7187021626        3.9037362831
 Br        20.0343147227       13.4038821682        2.5907114778
 Zn        18.7187993344        3.9036659915       14.7187659735
 Br        20.0341726309        2.5905956622       13.4039817155
 Zn         5.8334193852        5.9775051824       16.7925965019
 Zn        16.6578000831       16.7891771063       16.7892699507
 Zn        16.6444749744        5.9664975210        5.9665678779
 Zn         5.8335459317       16.7927504559        5.9773209867
 Zn         5.8254675600        5.9720496597        5.9718974867
 Zn        16.6532069206       16.7863820985        5.9704613710
 Zn         5.8376442004       16.7964962694       16.7963004757
 Zn        16.6530798160        5.9703402659       16.7864639129
  N         3.6449540779        5.9765449036       16.7952311708
  N        14.4566771725        5.9690598253        5.9691187977
  N        18.8391365946       16.7945974647       16.7946697906
  N         8.0142812649       16.7957109485        5.9787238958
  N        18.8272839400        5.9701446483        5.9701794234
  N         8.0141736481        5.9787863034       16.7956375423
  N         3.6451334842       16.7953660334        5.9764439478
  N        14.4711388016       16.7919801518       16.7920602693
  N        16.6409571506        3.7863633785        5.9724901686
  N        16.6568124796       14.6074738087       16.7919013434
  N        16.6539944848       18.9784969071       16.7919284234
  N        16.6406102936        8.1551418476        5.9746836433
  N         5.8288394001       18.9798811706        5.9794432225
  N         5.8272920096        8.1621238282       16.7937542918
  N         5.8305724664        3.7924099329       16.7968127889
  N         5.8299578496       14.6097488214        5.9762563591
  N         5.8307449163       16.7968776050        3.7923256910
  N         5.8298130798        5.9763379961       14.6096497621
  N        16.6540239718       16.7918304116       18.9785534486
  N        16.6405954709        5.9746530330        8.1552185983
  N         5.8287039812        5.9795155843       18.9798048495
  N         5.8274153045       16.7938423875        8.1620161071
  N        16.6409730271        5.9724160552        3.7864074790
  N        16.6568114838       16.7918497477       14.6075560781
  N         5.8204271449        3.7898560513        5.9748704860
  N         5.8340090674       14.6119662987       16.7969714853
  N        16.6477800641       18.9761045966        5.9730317627
  N        16.6527073231        8.1578389183       16.7888066286
  N         5.8355205586       18.9823063969       16.7972130118
  N         5.8224405939        8.1595364460        5.9740614516
  N        16.6468170675        3.7887369895       16.7882183434
  N        16.6488711609       14.6051124516        5.9762032020
  N         3.6501207690       16.7978737161       16.7977962411
  N        14.4649367147       16.7917362682        5.9763889664
  N        18.8344395047       16.7936383020        5.9721129474
  N         8.0199350350       16.7965859406       16.7964869014
  N        18.8342699667        5.9719847083       16.7936587994
  N         8.0065913071        5.9742602634        5.9741842415
  N         3.6376752781        5.9759550515        5.9758797063
  N        14.4648198425        5.9763891491       16.7917395792
  N        16.6476171534        5.9729430633       18.9761367867
  N        16.6528703346       16.7887649780        8.1579383327
  N        16.6469694886       16.7881815612        3.7887789764
  N        16.6487403092        5.9761286047       14.6051997869
  N         5.8204403026        5.9749738766        3.7897726686
  N         5.8340025659       16.7970477146       14.6118677755
  N         5.8355392085       16.7973367288       18.9822114231
  N         5.8224355495        5.9741199298        8.1594464847
  C        11.2438890249       15.7368472948       15.7368490032
  H        11.2422067490       14.9613523435       14.9613523098
  C        11.2296545032        4.9139569254        4.9139579975
  H        11.2278922446        4.1384500150        4.1384492433
  C         0.4206044733       15.7377266235        4.9160986526
  H         0.4215236621       14.9621642306        4.1406660641
  C         0.4204770859        4.9161316119       15.7376814778
  H         0.4213837435        4.1407000681       14.9621155181
  C        11.2390540225        7.0373618844       15.7383654288
  H        11.2387750822        7.8133059763       14.9632839110
  C        11.2397952426       17.8514428861        4.9207335804
  H        11.2401688028       18.6261719200        4.1444407083
  C         0.4124320585        7.0312914246        4.9162979267
  H         0.4124055912        7.8067484807        4.1407299534
  C         0.4244844099       17.8544381580       15.7397096676
  H         0.4243834065       18.6297950390       14.9640874348
  C        11.2391698545       15.7383834803        7.0373444435
  H        11.2388456781       14.9633031528        7.8132883685
  C        11.2395971822        4.9207484329       17.8514304947
  H        11.2399649805        4.1444573298       18.6261587790
  C         0.4245257107       15.7397219073       17.8544236212
  H         0.4244668030       14.9640985421       18.6297812320
  C         0.4124816320        4.9163116630        7.0312850555
  H         0.4124991445        4.1407462659        7.8067431259
  C        11.2330294732        7.0289807480        7.0289871260
  H        11.2354229800        7.8044985653        7.8045059679
  C        11.2468813773       17.8515103447       17.8515134609
  H        11.2483942958       18.6269999763       18.6270028258
  C         0.4183534358        7.0308506918       17.8526502716
  H         0.4174538006        7.8064207068       18.6281087658
  C         0.4184851256       17.8526870737        7.0308160798
  H         0.4176123974       18.6281477797        7.8063878445
  C        15.6025315962       11.3838780285       15.7274445016
  H        14.8282562739       11.3852951468       14.9506813832
  C        15.5864950606        0.5601918844        4.9153900834
  H        14.8123355284        0.5592199734        4.1385190417
  C         4.7679087504       11.3862903591        4.9182065379
  H         3.9926636141       11.3879174515        4.1424196085
  C         4.7749287685        0.5664429884       15.7402997303
  H         3.9996486650        0.5656077059       14.9645310287
  C        15.5865863855       11.3815118297        7.0333113585
  H        14.8079342522       11.3829748047        7.8056272565
  C        15.5929870041        0.5633316049       17.8480103891
  H        14.8182245228        0.5628463253       18.6242791106
  C         4.7733493149       11.3876549214       17.8535507736
  H         3.9985447442       11.3882709235       18.6297963071
  C         4.7667858169        0.5644257539        7.0350304534
  H         3.9915432465        0.5636850490        7.8108186068
  C         6.8866493020       11.3864644753       15.7364332826
  H         7.6617732016       11.3858860630       14.9605366238
  C         6.8813223093        0.5657452803        4.9193376856
  H         7.6568192930        0.5663857580        4.1437988375
  C        17.7059702339       11.3792118406        4.9222982190
  H        18.4827713590       11.3779910019        4.1480637568
  C        17.7057075819        0.5644006914       15.7304350067
  H        18.4805467349        0.5648235101       14.9542635665
  C         6.8824051627       11.3830405883        7.0338636174
  H         7.6577587533       11.3815466072        7.8095390974
  C         6.8892733037        0.5682529653       17.8562904446
  H         7.6647972318        0.5690602579       18.6317947333
  C        17.7128027192       11.3814475059       17.8478544230
  H        18.4865545922       11.3804180479       18.6251268431
  C        17.6982628971        0.5626406665        7.0336979979
  H        18.4728836569        0.5636623213        7.8101120263
  C        15.6026137495       15.7273612455       11.3839342637
  H        14.8283377794       14.9506053125       11.3853420503
  C        15.5864034972        4.9153020323        0.5602743434
  H        14.8122351714        4.1384362417        0.5593277680
  C         4.7750700854       15.7403732719        0.5663528871
  H         3.9997861779       14.9646002545        0.5655511577
  C         4.7678272061        4.9182752222       11.3862049337
  H         3.9925781310        4.1424994337       11.3877993873
  C         6.8867063586       15.7364925472       11.3864182966
  H         7.6618283219       14.9605890778       11.3858466820
  C         6.8812486007        4.9194494274        0.5656138422
  H         7.6567461449        4.1439147481        0.5662433379
  C        17.7058297552       15.7303422419        0.5644356552
  H        18.4806597448       14.9541685604        0.5648315605
  C        17.7058864535        4.9222253059       11.3792902831
  H        18.4826857346        4.1479847693       11.3780912489
  C        15.5865058651        7.0332367039       11.3815561085
  H        14.8078506350        7.8055552624       11.3830132605
  C        15.5931231658       17.8479414206        0.5634252929
  H        14.8183671621       18.6242148737        0.5629538972
  C         4.7667023743        7.0351341989        0.5643480908
  H         3.9914655137        7.8109200582        0.5636447041
  C         4.7734269975       17.8536261423       11.3875621040
  H         3.9986266139       18.6298827556       11.3881460701
  C         6.8823393928        7.0339204385       11.3829994110
  H         7.6576929771        7.8095894687       11.3815122465
  C         6.8893980142       17.8563763791        0.5681185509
  H         7.6649205338       18.6318873713        0.5689196589
  C        17.6981969559        7.0335783986        0.5626640170
  H        18.4728315978        7.8099858539        0.5636484026
  C        17.7128925184       17.8477733114       11.3815281337
  H        18.4866430069       18.6250436825       11.3805251130
 Kr        16.1122248564       11.2714710044       11.2715474490
