     409
 i =     176, E =    -5136.7097961529
  N         3.0408799240        5.2027894843       16.0211865630
  C         1.7230354302        5.4731820389       16.2904925053
  N        13.8583920806        5.2009679820        5.2009670585
  C        12.5408113718        5.4715188044        5.4715093160
  N        19.7251423213       17.5755187583       16.0196038766
  C        21.0429125326       17.3054315194       16.2897488265
  N         8.9035153168       17.5775608428        5.2028369373
  C        10.2212367600       17.3066116917        5.4720859402
  N        19.7216443399        5.2018040082        6.7576799460
  C        21.0394579969        5.4731246503        6.4887829755
  N         8.9035180711        5.2028324375       17.5775635047
  C        10.2212443977        5.4720892074       17.3066170800
  N         3.0399058002       17.5772281432        6.7591843893
  C         1.7224197049       17.3061665789        6.4889642299
  N        13.8623340384       17.5758906172       17.5758899626
  C        12.5445786127       17.3059908538       17.3059892615
  N        16.0122113596        3.0466643936        5.2009661234
  C        16.2825703867        1.7290115926        5.4710962849
  N        16.0155589382       13.8665536332       16.0195007360
  C        16.2858148115       12.5489421951       16.2893317241
  N        16.0155549952       19.7297866573       17.5753541065
  C        16.2851904941       21.0474666940       17.3048063242
  N        16.0130817016        8.9104069587        6.7571874180
  C        16.2839059115       10.2278825322        6.4873904169
  N         6.7507397864       19.7322224340        5.2031062171
  C         6.4805230338       21.0499022631        5.4735754316
  N         6.7511864469        8.9119735842       16.0213527045
  C         6.4813227964       10.2296474695       16.2915132538
  N         6.7510854245        3.0493041407       17.5778562623
  C         6.4822802407        1.7314524508       17.3068676042
  N         6.7502656481       13.8686878152        6.7591171369
  C         6.4801725032       12.5510469699        6.4888597415
  N         5.1955081589       16.0216440628        3.0487745082
  C         5.4667724147       16.2910277586        1.7311699273
  N         5.1946201485        5.2030424305       13.8688709250
  C         5.4646115677        5.4730937311       12.5511674013
  N        17.5712322273       16.0190335758       19.7298281529
  C        17.3006975388       16.2889215492       21.0475766657
  N        17.5685313979        5.2007687817        8.9098789829
  C        17.2993203705        5.4714592240       10.2276140756
  N         5.1947238262        6.7592502188       19.7320456264
  C         5.4649036528        6.4893719172       21.0497434637
  N         5.1951474591       17.5774603012        8.9124273929
  C         5.4656790426       17.3072676060       10.2299384800
  N        17.5680669403        6.7569612976        3.0470088863
  C        17.2981807411        6.4868204811        1.7292243180
  N        17.5715935037       17.5754525260       13.8664767347
  C        17.3015038957       17.3050332839       12.5488418969
  N         5.1932001090        3.0487669313        6.7591096622
  C         5.4640542738        1.7311501119        6.4893595288
  N         5.1963123443       13.8687414244       17.5775166844
  C         5.4662106272       12.5511207922       17.3072786302
  N        17.5692281473       19.7299880733        6.7567981640
  C        17.2987805893       21.0476955617        6.4867471510
  N        17.5699451996        8.9097679660       17.5759281512
  C        17.3006960792       10.2274966091       17.3052229192
  N         5.1969806773       19.7319514563       16.0214069157
  C         5.4675636155       21.0496754795       16.2909540591
  N         5.1935945051        8.9124355249        5.2030881125
  C         5.4641642229       10.2299667829        5.4731267462
  N        17.5699817178        3.0470424765       16.0189150128
  C        17.3000556856        1.7292091124       16.2888835843
  N        17.5702051341       13.8665349415        5.2011502842
  C        17.3001356913       12.5489130824        5.4715996594
  N         3.0421676927       16.0215300797       17.5776768816
  C         1.7244835590       16.2906834316       17.3064018914
  N        13.8602588047       16.0194794018        6.7568311807
  C        12.5426636331       16.2899300326        6.4868187333
  N        19.7237320817       16.0196182200        5.2015288726
  C        21.0414165439       16.2896442531        5.4724297312
  N         8.9048489168       16.0212986325       16.0213004083
  C        10.2226861148       16.2910282027       16.2910288914
  N        19.7229851774        6.7572255364       17.5757218162
  C        21.0408647022        6.4880228303       17.3054048875
  N         8.9023151701        6.7583012652        6.7582959356
  C        10.2198796929        6.4878577057        6.4878434585
  N         3.0387502778        6.7599482783        5.2037099582
  C         1.7210464871        6.4898028990        5.4740751880
  N        13.8602636318        6.7568257430       16.0194896026
  C        12.5426540620        6.4868184961       16.2899399127
  N        16.0135296369        5.2005471112       19.7298261429
  C        16.2832150316        5.4709218037       21.0475585785
  N        16.0142565889       16.0197334826        8.9102531845
  C        16.2851435020       16.2894295186       10.2277637671
  N        16.0141369250       17.5750513516        3.0464928453
  C        16.2844863091       17.3046915711        1.7289037915
  N        16.0143809994        6.7572375282       13.8666404619
  C        16.2845813684        6.4874107936       12.5490054209
  N         6.7487248428        5.2029331045        3.0493291933
  C         6.4795376664        5.4735283690        1.7314770514
  N         6.7519846239       16.0213971734       13.8687025999
  C         6.4817560337       16.2914709083       12.5510237456
  N         6.7530178066       17.5775590867       19.7321454936
  C         6.4832183174       17.3067399621       21.0498478740
  N         6.7495767138        6.7592165581        8.9121605797
  C         6.4797996597        6.4888703741       10.2298005587
  N        19.7229795961       17.5757205005        6.7572184292
  C        21.0408643606       17.3054127446        6.4880193591
  N         8.9056738711       17.5772007111       17.5772013781
  C        10.2232210850       17.3067039718       17.3067041128
  N         3.0387458712        5.2037012764        6.7599561695
  C         1.7210519781        5.4740741016        6.4898033573
  N        13.8602809932        5.2005593325       17.5756666329
  C        12.5426694241        5.4711164457       17.3057007910
  N         3.0421485886       17.5776917568       16.0215180810
  C         1.7244875087       17.3064046244       16.2906827797
  N        13.8602944553       17.5756575825        5.2005640171
  C        12.5426751294       17.3056966227        5.4711111000
  N        19.7237200774        5.2015390034       16.0196204340
  C        21.0414209972        5.4724387397       16.2896406778
  N         8.9014010234        5.2024453561        5.2024438409
  C        10.2192894032        5.4722076506        5.4721961494
  N         6.7530341311       19.7321631757       17.5775795305
  C         6.4832238149       21.0498467227       17.3067473794
  N         6.7495703709        8.9121496737        6.7592148760
  C         6.4798002295       10.2297923770        6.4888655087
  N         6.7487123305        3.0493330524        5.2029331156
  C         6.4795248026        1.7314794073        5.4735172813
  N         6.7519791440       13.8687083059       16.0214098241
  C         6.4817546997       12.5510121375       16.2914773359
  N        16.0141382105        3.0464961007       17.5750458880
  C        16.2844899699        1.7289058665       17.3046872570
  N        16.0143782959       13.8666328207        6.7572470153
  C        16.2845760249       12.5490072424        6.4874135746
  N        16.0135375820       19.7298158826        5.2005509073
  C        16.2832204311       21.0475586544        5.4709184622
  N        16.0142480869        8.9102631871       16.0197226149
  C        16.2851419581       10.2277619843       16.2894265869
  N        17.5692187979        6.7567923747       19.7299785328
  C        17.2987683825        6.4867440103       21.0476904858
  N        17.5699570679       17.5759407731        8.9097838727
  C        17.3007041824       17.3052312150       10.2275011273
  N         5.1932110536        6.7591055284        3.0487774525
  C         5.4640650982        6.4893686640        1.7311414445
  N         5.1963187850       17.5775045582       13.8687566063
  C         5.4662123799       17.3072736625       12.5511299384
  N        17.5699799653       16.0189191921        3.0470493030
  C        17.3000578323       16.2888806884        1.7292061095
  N        17.5702084503        5.2011443330       13.8665238832
  C        17.3001365461        5.4716051557       12.5489139503
  N         5.1969608450       16.0213891326       19.7319779468
  C         5.4675577788       16.2909516645       21.0496704417
  N         5.1935984045        5.2030900972        8.9124302131
  C         5.4641623585        5.4731317924       10.2299700689
  N        17.5712320042       19.7298288655       16.0190348894
  C        17.3006995419       21.0475875841       16.2889228258
  N        17.5685264566        8.9098686135        5.2007738527
  C        17.2993142385       10.2276028635        5.4714549434
  N         5.1955055142        3.0487689310       16.0216409905
  C         5.4667767794        1.7311740696       16.2910298512
  N         5.1946109854       13.8688571303        5.2030352883
  C         5.4646116234       12.5511663872        5.4730880097
  N        17.5680846265        3.0469857398        6.7569779814
  C        17.2981899117        1.7292337685        6.4868226244
  N        17.5715839880       13.8664853086       17.5754479497
  C        17.3014995330       12.5488315306       17.3050299848
  N         5.1947301480       19.7320333489        6.7592413682
  C         5.4648931150       21.0497457895        6.4893643087
  N         5.1951450574        8.9124266149       17.5774624214
  C         5.4656793936       10.2299353351       17.3072696624
  N        19.7216657287        6.7576947070        5.2017900235
  C        21.0394525039        6.4887856874        5.4731225025
  N         8.9035724117        6.7583017354       16.0213104723
  C        10.2212651632        6.4875534809       16.2907558124
  N         3.0399056883        6.7591775401       17.5772242589
  C         1.7224091376        6.4889641349       17.3061586182
  N        13.8589534071        6.7572388766        6.7572347953
  C        12.5412500358        6.4872594167        6.4872473687
  N         3.0408875069       16.0211916989        5.2027952391
  C         1.7230418663       16.2904967078        5.4731765944
  N        13.8615439456       16.0197268592       16.0197275516
  C        12.5440973966       16.2902691285       16.2902682128
  N        19.7251442267       16.0195964366       17.5755229189
  C        21.0429079814       16.2897471122       17.3054310665
  N         8.9035766094       16.0213063226        6.7583052256
  C        10.2212633071       16.2907455452        6.4875536480
  N         6.7510899415       17.5778557473        3.0493113904
  C         6.4822815359       17.3068666939        1.7314573508
  N         6.7502750985        6.7591231989       13.8686737180
  C         6.4801703364        6.4888624235       12.5510508513
  N         6.7507361173        5.2031175185       19.7322171804
  C         6.4805299185        5.4735903636       21.0499059735
  N         6.7511896079       16.0213490523        8.9119816812
  C         6.4813261283       16.2915066120       10.2296545381
  N        16.0155557126       17.5753542465       19.7297856944
  C        16.2851897058       17.3048053388       21.0474574123
  N        16.0130821135        6.7571808518        8.9104049250
  C        16.2839118982        6.4873901040       10.2278893472
  N        16.0121952440        5.2009514277        3.0466473407
  C        16.2825607681        5.4710929719        1.7290037019
  N        16.0155687275       16.0195055056       13.8665670284
  C        16.2858180158       16.2893344261       12.5489525205
 Zn        14.7214011346       14.7252383511       14.7252414316
 Br        13.4065792074       13.4112648614       13.4112672313
 Zn        14.7192079351        3.9062200864        3.9062163782
 Br        13.4031550378        2.5927843562        2.5927852901
 Zn         3.9015601319       14.7273749182        3.9076147919
 Br         2.5868145281       13.4129985734        2.5939214015
 Zn         3.9015560809        3.9076086119       14.7273748641
 Br         2.5868112967        2.5939196039       13.4129955080
 Zn         8.0456432939        8.0525835360       14.7267328852
 Br         9.3596762157        9.3667829672       13.4122432002
 Zn         8.0451067845       18.8722450236        3.9085291330
 Br         9.3597211858       20.1863269793        2.5944490688
 Zn        18.8626997208        8.0508208705        3.9062018248
 Br        20.1768764290        9.3653340247        2.5921163933
 Zn        18.8662842943       18.8701201653       14.7253939875
 Br        20.1802341337       20.1839383357       13.4104211154
 Zn         8.0456485705       14.7267339714        8.0525881204
 Br         9.3596805064       13.4122396439        9.3667872850
 Zn         8.0451059487        3.9085230472       18.8722468968
 Br         9.3597180086        2.5944490131       20.1863288597
 Zn        18.8662860332       14.7253931861       18.8701232309
 Br        20.1802357972       13.4104169277       20.1839400939
 Zn        18.8626989499        3.9061960232        8.0508228958
 Br        20.1768773852        2.5921157824        9.3653381869
 Zn        14.7196041265        8.0516507346        8.0516473978
 Br        13.4051215683        9.3658484330        9.3658485149
 Zn        14.7223902055       18.8704246829       18.8704258158
 Br        13.4076323628       20.1844385613       20.1844404535
 Zn         3.9008271679        8.0530392129       18.8718023629
 Br         2.5865029023        9.3678589034       20.1855254819
 Zn         3.9008283575       18.8718009125        8.0530419532
 Br         2.5865040282       20.1855307011        9.3678605188
 Zn        14.7204797544       14.7252397317        8.0515564747
 Br        13.4058121970       13.4113111018        9.3657801816
 Zn        14.7207568040        3.9056302188       18.8699614775
 Br        13.4054653286        2.5917351778       20.1836157953
 Zn         3.9025488709       14.7272908182       18.8721224345
 Br         2.5881687072       13.4129013002       20.1861494814
 Zn         3.8999050300        3.9081494175        8.0530784915
 Br         2.5850349570        2.5950249289        9.3679858053
 Zn         8.0447606311        8.0527167682        8.0527180500
 Br         9.3589273863        9.3669848368        9.3669835017
 Zn         8.0475027066       18.8717858767       18.8717837316
 Br         9.3623465379       20.1857300255       20.1857325992
 Zn        18.8639751162        8.0507187125       18.8707398851
 Br        20.1781843293        9.3652621650       20.1847690752
 Zn        18.8639761708       18.8707418940        8.0507199316
 Br        20.1781878545       20.1847730885        9.3652626442
 Zn        14.7204777195        8.0515617125       14.7252399709
 Br        13.4058096743        9.3657789147       13.4113121721
 Zn        14.7207566993       18.8699612521        3.9056249598
 Br        13.4054611791       20.1836190502        2.5917322956
 Zn         3.8999049198        8.0530803777        3.9081517667
 Br         2.5850344827        9.3679820613        2.5950270621
 Zn         3.9025445363       18.8721181126       14.7272930381
 Br         2.5881693209       20.1861508928       13.4129036205
 Zn         8.0465827021       14.7267946580       14.7267946587
 Br         9.3603998474       13.4123531043       13.4123547226
 Zn         8.0422909679        3.9080103513        3.9080101425
 Br         9.3568119729        2.5938474570        2.5938485166
 Zn        18.8650778845       14.7254302584        3.9067399428
 Br        20.1789661907       13.4104606035        2.5928769785
 Zn        18.8650727044        3.9067421043       14.7254285717
 Br        20.1789627000        2.5928826297       13.4104618478
 Zn         5.9681659485        5.9835549069       16.8022608855
 Zn        16.7898486183       16.7975777639       16.7975824067
 Zn        16.7854600820        5.9792636379        5.9792874670
 Zn         5.9681712393       16.8022638279        5.9835656945
 Zn         5.9660597355        5.9837265296        5.9837432716
 Zn        16.7874294693       16.7976761122        5.9789922576
 Zn         5.9707781134       16.8022744943       16.8022833675
 Zn        16.7874242749        5.9789866943       16.7976625650
  N         3.7869391197        5.9808737063       16.7996538874
  N        14.6051654156        5.9789752311        5.9789809747
  N        18.9782751769       16.7975772770       16.7975703485
  N         8.1566380103       16.7998493605        5.9810168488
  N        18.9747411419        5.9790399372        5.9790852718
  N         8.1566299658        5.9810160645       16.7998440994
  N         3.7869358673       16.7996431679        5.9808713926
  N        14.6085070244       16.7977835975       16.7977844911
  N        16.7899316270        3.7936329220        5.9789623165
  N        16.7934557842       14.6132273396       16.7976710847
  N        16.7936293851       18.9830486988       16.7973320303
  N        16.7903398097        8.1633925990        5.9786660801
  N         5.9726171716       18.9854759035        5.9810750702
  N         5.9728945631        8.1655801960       16.7994766721
  N         5.9726380588        3.7959271705       16.8003277607
  N         5.9723964035       14.6156023731        5.9811566698
  N         5.9726400053       16.8003261477        3.7959195914
  N         5.9723727639        5.9811244338       14.6156125155
  N        16.7936287641       16.7973324466       18.9830428210
  N        16.7903296717        5.9786678194        8.1633916266
  N         5.9726304466        5.9810560899       18.9854670960
  N         5.9728910882       16.7994806589        8.1655926823
  N        16.7899668838        5.9789931045        3.7936257365
  N        16.7934387157       16.7976468837       14.6132334914
  N         5.9705019837        3.7959557780        5.9807561325
  N         5.9742501580       14.6155561795       16.7994877596
  N        16.7915297738       18.9831462357        5.9786009202
  N        16.7916375821        8.1632705210       16.7981744213
  N         5.9746611846       18.9854347685       16.7998664791
  N         5.9712917796        8.1656558758        5.9812952657
  N        16.7919160330        3.7935425410       16.7970725724
  N        16.7920921507       14.6133064485        5.9790664313
  N         3.7887376255       16.8002045451       16.8002463496
  N        14.6067971143       16.7974543755        5.9785782033
  N        18.9764690427       16.7977520487        5.9788740266
  N         8.1584004180       16.7994548252       16.7994588800
  N        18.9764597990        5.9788549677       16.7977318561
  N         8.1549117951        5.9806196026        5.9806231553
  N         3.7852538957        5.9817831854        5.9817759129
  N        14.6068030328        5.9785953269       16.7974348629
  N        16.7915423182        5.9786131356       18.9831349769
  N        16.7916209060       16.7981571123        8.1632838354
  N        16.7919273572       16.7970660135        3.7935293221
  N        16.7920668480        5.9790789632       14.6133209653
  N         5.9704891020        5.9807684491        3.7959537821
  N         5.9742298318       16.7995018030       14.6155641340
  N         5.9747005611       16.7999036140       18.9854347307
  N         5.9712831392        5.9812774469        8.1656584554
  C        11.3830203757       15.7409783657       15.7409781478
  H        11.3825315809       14.9654630798       14.9654642836
  C        11.3797124185        4.9222325949        4.9222194977
  H        11.3792698205        4.1467333774        4.1467248031
  C         0.5625599432       15.7402565152        4.9233815403
  H         0.5632315730       14.9646424538        4.1479567094
  C         0.5625544222        4.9233866296       15.7402467445
  H         0.5632245994        4.1479631853       14.9646365069
  C        11.3819143398        7.0367403340       15.7405551614
  H        11.3819213946        7.8122060666       14.9649868081
  C        11.3819160219       17.8557989551        4.9219601436
  H        11.3819329054       18.6314174990        4.1465595705
  C         0.5602082686        7.0391643628        4.9242448958
  H         0.5602573628        7.8147759495        4.1488529397
  C         0.5636754480       17.8553700772       15.7404341317
  H         0.5637366072       18.6308597839       14.9648953914
  C        11.3819186485       15.7405484910        7.0367340338
  H        11.3819252351       14.9649789494        7.8122038761
  C        11.3819151788        4.9219635236       17.8558072853
  H        11.3819335236        4.1465674859       18.6314181745
  C         0.5636752534       15.7404308388       17.8553693978
  H         0.5637397172       14.9648893760       18.6308597716
  C         0.5602078450        4.9242427884        7.0391643465
  H         0.5602532088        4.1488472856        7.8147770166
  C        11.3808147804        7.0372273044        7.0372093513
  H        11.3812456058        7.8127381969        7.8127218991
  C        11.3842097186       17.8560047767       17.8560026230
  H        11.3847466067       18.6315195033       18.6315171678
  C         0.5612175771        7.0382815311       17.8552185941
  H         0.5606664344        7.8138487895       18.6306563041
  C         0.5612200911       17.8552245212        7.0382760062
  H         0.5606667688       18.6306640305        7.8138500712
  C        15.7358799885       11.3884962809       15.7395539699
  H        14.9602855829       11.3886829762       14.9641168645
  C        15.7331502059        0.5681584950        4.9214485563
  H        14.9574254202        0.5680038800        4.1461447498
  C         4.9146806286       11.3906911581        4.9234152707
  H         4.1390439057       11.3907828010        4.1480436518
  C         4.9177931227        0.5702489074       15.7411101327
  H         4.1422782653        0.5699757001       14.9655973306
  C        15.7346678544       11.3886030183        7.0372869447
  H        14.9591162829       11.3888185092        7.8127742477
  C        15.7351403668        0.5680502331       17.8543153679
  H        14.9595330369        0.5678569944       18.6297275817
  C         4.9162931005       11.3906637205       17.8569877832
  H         4.1408105786       11.3907999581       18.6325138919
  C         4.9149950200        0.5702617474        7.0391885299
  H         4.1395677873        0.5699344336        7.8147771023
  C         7.0311658630       11.3902450153       15.7417172048
  H         7.8065609979       11.3900382184       14.9660692564
  C         7.0297017016        0.5709114123        4.9239425909
  H         7.8051124821        0.5712830956        4.1483268904
  C        17.8493873747       11.3881077617        4.9218032450
  H        18.6246262656       11.3878403121        4.1460257325
  C        17.8497879027        0.5685308586       15.7390477612
  H        18.6250045118        0.5687916809       14.9632318298
  C         7.0296384694       11.3903628588        7.0386376269
  H         7.8049819183       11.3901834687        7.8143203680
  C         7.0325179938        0.5708309974       17.8562934939
  H         7.8079119737        0.5711563742       18.6319344227
  C        17.8508503869       11.3880343644       17.8547452324
  H        18.6262470942       11.3877973979       18.6303722903
  C        17.8479797452        0.5685626651        7.0365655719
  H        18.6232612342        0.5687967717        7.8123042417
  C        15.7358815877       15.7395569281       11.3884956798
  H        14.9602833904       14.9641140483       11.3886850023
  C        15.7331434306        4.9214517298        0.5681624975
  H        14.9574254337        4.1461517555        0.5679987262
  C         4.9177904294       15.7411128004        0.5702579098
  H         4.1422767389       14.9656036339        0.5699828640
  C         4.9146741336        4.9234178998       11.3906894095
  H         4.1390378078        4.1480416165       11.3907841678
  C         7.0311648639       15.7417133643       11.3902483316
  H         7.8065593339       14.9660644352       11.3900442315
  C         7.0297173780        4.9239575704        0.5709171496
  H         7.8051275901        4.1483440359        0.5712807730
  C        17.8497862280       15.7390466282        0.5685346670
  H        18.6250067509       14.9632272279        0.5687890293
  C        17.8493948691        4.9218086126       11.3881089818
  H        18.6246261987        4.1460328627       11.3878454074
  C        15.7346688081        7.0372912587       11.3886012055
  H        14.9591138967        7.8127716578       11.3888194785
  C        15.7351407409       17.8543146506        0.5680525101
  H        14.9595318555       18.6297297883        0.5678517950
  C         4.9150060904        7.0391998360        0.5702680724
  H         4.1395798211        7.8147829604        0.5699374716
  C         4.9162931940       17.8569839533       11.3906661458
  H         4.1408057147       18.6325125357       11.3908067414
  C         7.0296355129        7.0386409478       11.3903637411
  H         7.8049782719        7.8143159142       11.3901874118
  C         7.0325181467       17.8562900640        0.5708387023
  H         7.8079177202       18.6319335265        0.5711538052
  C        17.8479734760        7.0365682965        0.5685677227
  H        18.6232588754        7.8123058810        0.5687967931
  C        17.8508510618       17.8547463094       11.3880363679
  H        18.6262477814       18.6303711515       11.3878049619
 Kr         0.6360187613       10.6934828514       10.6934825830
