     409
 i =     176, E =    -5136.7098537623
  N         3.0360886233        5.2027173550       16.0224834343
  C         1.7181672369        5.4728457201       16.2918187086
  N        13.8524153701        5.2003579274        5.2003607718
  C        12.5347436868        5.4710731222        5.4710717030
  N        19.7209996404       17.5759125634       16.0200034937
  C        21.0387704284       17.3063400186       16.2906707247
  N         8.8982650275       17.5786029605        5.2030653476
  C        10.2160924737       17.3073996786        5.4720961703
  N        19.7153103985        5.2011156972        6.7571798054
  C        21.0331658719        5.4726213930        6.4883365750
  N         8.8982712678        5.2030682014       17.5786008220
  C        10.2160956795        5.4721004512       17.3074026937
  N         3.0347904578       17.5783388032        6.7594709944
  C         1.7172787531       17.3073853780        6.4887970477
  N        13.8584738820       17.5762358818       17.5762382252
  C        12.5406970492       17.3063949803       17.3063984277
  N        16.0070044672        3.0459961123        5.1997435924
  C        16.2777148142        1.7284142597        5.4695845507
  N        16.0121532590       13.8665050701       16.0195558783
  C        16.2822777291       12.5488694194       16.2893194803
  N        16.0124497597       19.7294757015       17.5756922468
  C        16.2822005424       21.0471205479       17.3054431077
  N        16.0079910348        8.9104011572        6.7569834431
  C        16.2789762749       10.2278973299        6.4872377392
  N         6.7448643606       19.7330745390        5.2034771715
  C         6.4742860912       21.0506817335        5.4737694337
  N         6.7459383638        8.9127445246       16.0224022526
  C         6.4763696069       10.2305017802       16.2925911162
  N         6.7455613436        3.0498473652       17.5793280072
  C         6.4770761425        1.7319803024       17.3084036098
  N         6.7441240040       13.8695378761        6.7597578934
  C         6.4739302411       12.5518915625        6.4895927142
  N         5.1905832863       16.0228288512        3.0491053834
  C         5.4618366468       16.2923377142        1.7315248437
  N         5.1891604341        5.2032487681       13.8698196801
  C         5.4587060400        5.4734969357       12.5521024409
  N        17.5677193656       16.0191479008       19.7296199077
  C        17.2974997498       16.2893893283       21.0473105987
  N        17.5625005309        5.2000096191        8.9096996502
  C        17.2939347501        5.4708955433       10.2274693089
  N         5.1895056517        6.7600372138       19.7326138267
  C         5.4590237288        6.4899145439       21.0503117556
  N         5.1902560062       17.5786599406        8.9134226930
  C         5.4608925604       17.3085098479       10.2308909368
  N        17.5621674697        6.7561197434        3.0465085165
  C        17.2929891817        6.4856197204        1.7287472724
  N        17.5679212019       17.5756295528       13.8662695893
  C        17.2978123533       17.3051413177       12.5486466775
  N         5.1868501211        3.0490421527        6.7600697250
  C         5.4575332708        1.7314668742        6.4900504354
  N         5.1919595667       13.8696276234       17.5786892711
  C         5.4616924732       12.5519886184       17.3085037939
  N        17.5641914698       19.7298531191        6.7558902624
  C        17.2940205554       21.0474492776        6.4855056199
  N        17.5651727763        8.9095688188       17.5762782093
  C        17.2964670437       10.2273289980       17.3054022812
  N         5.1929338928       19.7325809980       16.0225760487
  C         5.4631356065       21.0502384723       16.2923045938
  N         5.1874746851        8.9134503996        5.2034192716
  C         5.4579115344       10.2309776552        5.4735824113
  N        17.5657945021        3.0465889896       16.0189612512
  C        17.2965133115        1.7287611432       16.2893090385
  N        17.5655062669       13.8663110321        5.2005525278
  C        17.2954083683       12.5487196507        5.4710916953
  N         3.0380036830       16.0227983207       17.5790276225
  C         1.7203491336       16.2920241604       17.3077564109
  N        13.8554967796       16.0196725564        6.7563303288
  C        12.5378083922       16.2903545686        6.4864641350
  N        19.7188500410       16.0200517703        5.2009439452
  C        21.0364466143       16.2905573373        5.4718343960
  N         8.9004195751       16.0220890599       16.0220917099
  C        10.2183974617       16.2916814639       16.2916849744
  N        19.7176069739        6.7566612445       17.5762640906
  C        21.0356003441        6.4874347603       17.3063145661
  N         8.8960378846        6.7584603610        6.7584570053
  C        10.2136239141        6.4877334562        6.4877280655
  N         3.0327884593        6.7603680455        5.2039968097
  C         1.7150182007        6.4898083755        5.4740306593
  N        13.8555069934        6.7563320967       16.0196744015
  C        12.5378090639        6.4864706658       16.2903573464
  N        16.0092245448        5.1992276819       19.7294916938
  C        16.2788185219        5.4693928295       21.0471922866
  N        16.0100761232       16.0197740232        8.9102304193
  C        16.2811797966       16.2893796916       10.2277249172
  N        16.0103038158       17.5752558655        3.0458417531
  C        16.2811329348       17.3052732052        1.7283472355
  N        16.0102120117        6.7570142590       13.8666236764
  C        16.2801775710        6.4871977856       12.5489928132
  N         6.7412413056        5.2032464942        3.0498312860
  C         6.4724898735        5.4737253394        1.7319831390
  N         6.7471875382       16.0223844721       13.8695236059
  C         6.4770153684       16.2925356224       12.5518485343
  N         6.7487733304       17.5788639150       19.7329374406
  C         6.4786477731       17.3082010208       21.0505495138
  N         6.7428286461        6.7599278719        8.9130263579
  C         6.4732532356        6.4896430581       10.2307107564
  N        19.7176078942       17.5762676652        6.7566644576
  C        21.0355963256       17.3063167209        6.4874359363
  N         8.9016749481       17.5779964772       17.5779955761
  C        10.2192083525       17.3073519872       17.3073535734
  N         3.0327854536        5.2039939520        6.7603678784
  C         1.7150196143        5.4740290386        6.4898075642
  N        13.8554828900        5.1997984905       17.5757865723
  C        12.5377937770        5.4706803554       17.3060722259
  N         3.0380074565       17.5790231590       16.0228057832
  C         1.7203489764       17.3077543128       16.2920279457
  N        13.8554800819       17.5757829459        5.1997997607
  C        12.5377921598       17.3060659254        5.4706781401
  N        19.7188495861        5.2009394192       16.0200444269
  C        21.0364523252        5.4718302341       16.2905506015
  N         8.8946314939        5.2023791739        5.2023778859
  C        10.2127525062        5.4720113852        5.4720078085
  N         6.7487699482       19.7329373159       17.5788676812
  C         6.4786417901       21.0505511374       17.3082083550
  N         6.7428305749        8.9130328243        6.7599269488
  C         6.4732543919       10.2307121256        6.4896407481
  N         6.7412374569        3.0498305319        5.2032464580
  C         6.4724868886        1.7319841485        5.4737259524
  N         6.7471885640       13.8695275953       16.0223815091
  C         6.4770180594       12.5518472735       16.2925335317
  N        16.0103000533        3.0458395901       17.5752538093
  C        16.2811283601        1.7283454032       17.3052690430
  N        16.0102135418       13.8666219047        6.7570189047
  C        16.2801806083       12.5489955705        6.4871997665
  N        16.0092296115       19.7294911148        5.1992236824
  C        16.2788307743       21.0471915800        5.4693819043
  N        16.0100786375        8.9102246125       16.0197759327
  C        16.2811754058       10.2277239807       16.2893832289
  N        17.5641877110        6.7558924750       19.7298509679
  C        17.2940101328        6.4855160665       21.0474502345
  N        17.5651688658       17.5762747924        8.9095704136
  C        17.2964686815       17.3053954810       10.2273303631
  N         5.1868471802        6.7600681297        3.0490458801
  C         5.4575300838        6.4900506125        1.7314642059
  N         5.1919588208       17.5786904408       13.8696283609
  C         5.4616896270       17.3085045073       12.5519898243
  N        17.5657973354       16.0189624620        3.0465881026
  C        17.2965161125       16.2893140444        1.7287638128
  N        17.5655089578        5.2005489999       13.8663084587
  C        17.2954103133        5.4710876888       12.5487166091
  N         5.1929381937       16.0225769833       19.7325844479
  C         5.4631436547       16.2923022630       21.0502352253
  N         5.1874697058        5.2034210889        8.9134485776
  C         5.4579089260        5.4735856251       10.2309761698
  N        17.5677180065       19.7296197166       16.0191490994
  C        17.2974961281       21.0473083777       16.2893877172
  N        17.5625017208        8.9097007839        5.2000117225
  C        17.2939347146       10.2274669817        5.4708990234
  N         5.1905795026        3.0490972634       16.0228278893
  C         5.4618307974        1.7315252413       16.2923427871
  N         5.1891563592       13.8698245017        5.2032472468
  C         5.4587035412       12.5521006032        5.4734933100
  N        17.5621712739        3.0465086724        6.7561172266
  C        17.2930007856        1.7287457471        6.4856108542
  N        17.5679171416       13.8662677618       17.5756376879
  C        17.2978071680       12.5486409211       17.3051512994
  N         5.1895066399       19.7326060564        6.7600399896
  C         5.4590237631       21.0503122097        6.4899177793
  N         5.1902643648        8.9134239030       17.5786558032
  C         5.4609000290       10.2308860242       17.3085070695
  N        19.7153123831        6.7571798380        5.2011178439
  C        21.0331654479        6.4883358645        5.4726242209
  N         8.8983297927        6.7584895606       16.0221125459
  C        10.2161227026        6.4875364867       16.2914628077
  N         3.0347869346        6.7594649405       17.5783360743
  C         1.7172832305        6.4887918805       17.3073822074
  N        13.8533153357        6.7567573000        6.7567562980
  C        12.5354193630        6.4868496965        6.4868457426
  N         3.0360921537       16.0224861077        5.2027218463
  C         1.7181643964       16.2918206323        5.4728484060
  N        13.8575443451       16.0199899058       16.0199934915
  C        12.5400171144       16.2906588448       16.2906633016
  N        19.7209957537       16.0199972273       17.5759156628
  C        21.0387727913       16.2906650772       17.3063439271
  N         8.8983156192       16.0221129565        6.7584865592
  C        10.2161195979       16.2914575364        6.4875334340
  N         6.7455674999       17.5793261812        3.0498516788
  C         6.4770844862       17.3083973789        1.7319791159
  N         6.7441278800        6.7597555897       13.8695294023
  C         6.4739299817        6.4895913322       12.5518934553
  N         6.7448675934        5.2034774065       19.7330800561
  C         6.4742878958        5.4737693005       21.0506819005
  N         6.7459316923       16.0224054404        8.9127377864
  C         6.4763662225       16.2925909278       10.2305053521
  N        16.0124519562       17.5756915157       19.7294789120
  C        16.2822045893       17.3054450457       21.0471199470
  N        16.0079861827        6.7569810267        8.9104039770
  C        16.2789727933        6.4872352513       10.2278994825
  N        16.0069992107        5.1997487343        3.0459987995
  C        16.2777025904        5.4695953715        1.7284144900
  N        16.0121576879       16.0195492054       13.8665108787
  C        16.2822841536       16.2893116525       12.5488733111
 Zn        14.7185445233       14.7254986329       14.7255005685
 Br        13.4029405425       13.4118691489       13.4118737552
 Zn        14.7146315647        3.9056526993        3.9056519434
 Br        13.3980459480        2.5923962342        2.5923974432
 Zn         3.8975876927       14.7284873137        3.9076071676
 Br         2.5817901038       13.4147994963        2.5941467308
 Zn         3.8975890371        3.9076077313       14.7284795754
 Br         2.5817898161        2.5941457018       13.4147987020
 Zn         8.0389225994        8.0527875495       14.7275774554
 Br         9.3534724210        9.3666875340       13.4131661357
 Zn         8.0385672423       18.8733119363        3.9090004687
 Br         9.3533320769       20.1877332867        2.5952738143
 Zn        18.8545067855        8.0505281612        3.9055187503
 Br        20.1701284882        9.3641233291        2.5916378630
 Zn        18.8621442130       18.8701759930       14.7252834435
 Br        20.1764364738       20.1840333219       13.4107080284
 Zn         8.0389184292       14.7275806951        8.0527900839
 Br         9.3534685444       13.4131679067        9.3666890346
 Zn         8.0385769978        3.9089969996       18.8733112358
 Br         9.3533377830        2.5952652755       20.1877407774
 Zn        18.8621469489       14.7252783018       18.8701827093
 Br        20.1764345312       13.4107043720       20.1840361759
 Zn        18.8545123575        3.9055147297        8.0505305320
 Br        20.1701285428        2.5916326847        9.3641315236
 Zn        14.7155392616        8.0512023375        8.0511992130
 Br        13.4005197589        9.3652126284        9.3652137735
 Zn        14.7195559245       18.8705616910       18.8705641092
 Br        13.4050168365       20.1847219256       20.1847256566
 Zn         3.8966469342        8.0537826404       18.8723864134
 Br         2.5818093257        9.3682447811       20.1861293188
 Zn         3.8966451194       18.8723913648        8.0537825053
 Br         2.5818114910       20.1861282729        9.3682445353
 Zn        14.7171029180       14.7255970756        8.0511636126
 Br        13.4017510308       13.4120371227        9.3652110721
 Zn        14.7171194890        3.9047051302       18.8697111128
 Br        13.4014930728        2.5909100022       20.1832695286
 Zn         3.8991374595       14.7282817821       18.8730545403
 Br         2.5841444170       13.4147589136       20.1874304851
 Zn         3.8950095298        3.9086227668        8.0538380267
 Br         2.5793340565        2.5957165558        9.3683830738
 Zn         8.0367135325        8.0529675116        8.0529682086
 Br         9.3518874969        9.3668627392        9.3668624449
 Zn         8.0435483720       18.8725256831       18.8725290886
 Br         9.3580869572       20.1866105539       20.1866061426
 Zn        18.8574129018        8.0503926058       18.8711643260
 Br        20.1725926481        9.3641036483       20.1852632853
 Zn        18.8574087270       18.8711619415        8.0503959742
 Br        20.1725882613       20.1852656623        9.3641063397
 Zn        14.7171016525        8.0511670205       14.7255938142
 Br        13.4017488499        9.3652137158       13.4120354810
 Zn        14.7171161789       18.8697089900        3.9047061021
 Br        13.4014932097       20.1832725879        2.5909075166
 Zn         3.8950056694        8.0538404904        3.9086237518
 Br         2.5793314681        9.3683863204        2.5957151587
 Zn         3.8991324456       18.8730535530       14.7282800502
 Br         2.5841361014       20.1874313454       13.4147610407
 Zn         8.0409807929       14.7276808428       14.7276797991
 Br         9.3550602909       13.4133177320       13.4133138964
 Zn         8.0321548145        3.9080675949        3.9080728848
 Br         9.3480625847        2.5943559965        2.5943545837
 Zn        18.8598056426       14.7252955526        3.9063983496
 Br        20.1741670993       13.4106601851        2.5926331813
 Zn        18.8598096278        3.9063914897       14.7252923392
 Br        20.1741653790        2.5926272502       13.4106535139
 Zn         5.9626299351        5.9843791815       16.8038980936
 Zn        16.7852549227       16.7975047845       16.7975134531
 Zn        16.7800806739        5.9781823493        5.9781855427
 Zn         5.9626277865       16.8039065052        5.9843789692
 Zn         5.9601021056        5.9847578041        5.9847617715
 Zn        16.7825486684       16.7974873422        5.9777537673
 Zn         5.9654247551       16.8040078760       16.8040102471
 Zn        16.7825515716        5.9777457516       16.7974858060
  N         3.7819113611        5.9812327999       16.8008504198
  N        14.5993065433        5.9783516116        5.9783544866
  N        18.9741060526       16.7976682354       16.7976823685
  N         8.1514379282       16.8008811149        5.9813213318
  N        18.9685159201        5.9784099611        5.9784151045
  N         8.1514457752        5.9813182299       16.8008822321
  N         3.7819127305       16.8008545260        5.9812400866
  N        14.6045343695       16.7979125265       16.7979151762
  N        16.7841211660        3.7930637384        5.9781542713
  N        16.7899165606       14.6131357129       16.7978127554
  N        16.7901168960       18.9827541954       16.7974228394
  N        16.7845467161        8.1632287451        5.9781353214
  N         5.9673516383       18.9862063564        5.9817523001
  N         5.9677468084        8.1664489908       16.8005247281
  N         5.9672682658        3.7963905154       16.8015444943
  N         5.9667473690       14.6165756056        5.9815151746
  N         5.9672699199       16.8015452816        3.7963934770
  N         5.9667497848        5.9815111911       14.6165692726
  N        16.7901219481       16.7974153870       18.9827558912
  N        16.7845459540        5.9781306454        8.1632284632
  N         5.9673551761        5.9817489709       18.9862087593
  N         5.9677409682       16.8005274522        8.1664462686
  N        16.7841180090        5.9781512882        3.7930642591
  N        16.7899153295       16.7978017595       14.6131390373
  N         5.9635369161        3.7963752185        5.9815097262
  N         5.9696362226       14.6164899144       16.8005796819
  N        16.7867738909       18.9828534882        5.9776301405
  N        16.7869272367        8.1630713734       16.7984062801
  N         5.9706790005       18.9861367785       16.8010279635
  N         5.9648360202        8.1666378624        5.9817771975
  N        16.7875679418        3.7929820407       16.7969832959
  N        16.7877592620       14.6132181994        5.9785633316
  N         3.7845412058       16.8015151940       16.8015176443
  N        14.6019663355       16.7974897740        5.9778054215
  N        18.9713694221       16.7980467865        5.9783694253
  N         8.1541539974       16.8003338349       16.8003336835
  N        18.9713706016        5.9783631335       16.7980390585
  N         8.1485768610        5.9807314791        5.9807304418
  N         3.7792003073        5.9823641145        5.9823592086
  N        14.6019708705        5.9778096665       16.7974852347
  N        16.7867757827        5.9776311500       18.9828582021
  N        16.7869237364       16.7984081401        8.1630720434
  N        16.7875681892       16.7969862046        3.7929886763
  N        16.7877576608        5.9785613528       14.6132143106
  N         5.9635344110        5.9815125277        3.7963808196
  N         5.9696324842       16.8005858151       14.6164871025
  N         5.9706850677       16.8010330403       18.9861422443
  N         5.9648350514        5.9817807759        8.1666324541
  C        11.3787135182       15.7415339306       15.7415390578
  H        11.3780525133       14.9660190155       14.9660251449
  C        11.3732932432        4.9220214093        4.9220194838
  H        11.3726774778        4.1465132929        4.1465131931
  C         0.5578006236       15.7415301731        4.9228268809
  H         0.5587220824       14.9660173455        4.1473226237
  C         0.5578043566        4.9228298376       15.7415311031
  H         0.5587240255        4.1473293012       14.9660207731
  C        11.3769241792        7.0364840706       15.7412106005
  H        11.3769483642        7.8119517567       14.9656607951
  C        11.3768844632       17.8563294159        4.9218084412
  H        11.3768926522       18.6319573246        4.1464211787
  C         0.5540475532        7.0388120643        4.9239954798
  H         0.5540959865        7.8144126060        4.1485816785
  C         0.5595179870       17.8566318765       15.7416757012
  H         0.5595579793       18.6322050380       14.9662254250
  C        11.3769228559       15.7412020012        7.0364816981
  H        11.3769432665       14.9656506703        7.8119507643
  C        11.3768900779        4.9218118320       17.8563354224
  H        11.3769002116        4.1464230435       18.6319645003
  C         0.5595209749       15.7416776729       17.8566269126
  H         0.5595613142       14.9662316328       18.6321941000
  C         0.5540507738        4.9239902683        7.0388116818
  H         0.5540993500        4.1485732389        7.8144110973
  C        11.3749082514        7.0368256938        7.0368188124
  H        11.3755520956        7.8123352642        7.8123268528
  C        11.3803613533       17.8564985130       17.8565009395
  H        11.3810687992       18.6320027686       18.6320044008
  C         0.5558639492        7.0378296428       17.8563221824
  H         0.5550174628        7.8133994507       18.6317740819
  C         0.5558618064       17.8563217772        7.0378304873
  H         0.5550171156       18.6317698958        7.8133980539
  C        15.7322114068       11.3885298808       15.7394101899
  H        14.9566718593       11.3888806006       14.9639204400
  C        15.7286970959        0.5676004509        4.9196202104
  H        14.9531495729        0.5672700091        4.1441493973
  C         4.9086827132       11.3917212132        4.9237241132
  H         4.1331611103       11.3919011403        4.1482108429
  C         4.9130377733        0.5706168551       15.7423754970
  H         4.1374796924        0.5701126665       14.9668919070
  C        15.7301774882       11.3887189962        7.0373075408
  H        14.9548128398       11.3891339607        7.8129681179
  C        15.7320840119        0.5675263897       17.8551924380
  H        14.9565729599        0.5671947156       18.6307210036
  C         4.9116981886       11.3916324915       17.8583462944
  H         4.1362694243       11.3918516574       18.6339371094
  C         4.9088568983        0.5705395523        7.0399759596
  H         4.1335757909        0.5699162799        7.8157200193
  C         7.0262645268       11.3910210178       15.7426939659
  H         7.8015213033       11.3907153072       14.9669122508
  C         7.0228561985        0.5717373156        4.9237903566
  H         7.7979750486        0.5724009230        4.1478560205
  C        17.8442255188       11.3877966861        4.9210638113
  H        18.6192511213       11.3873115004        4.1450548050
  C        17.8464871568        0.5682405131       15.7394704902
  H        18.6216017378        0.5686074928       14.9635700911
  C         7.0230804580       11.3911732772        7.0395783544
  H         7.7982623046       11.3908940851        7.8154376630
  C         7.0275061448        0.5715926527       17.8580088124
  H         7.8026700797        0.5721070985       18.6338616160
  C        17.8468513448       11.3877363624       17.8549932608
  H        18.6221222576       11.3873269673       18.6307487561
  C        17.8430600906        0.5683118393        7.0354697575
  H        18.6182362146        0.5686857003        7.8113380479
  C        15.7322192375       15.7394055036       11.3885313592
  H        14.9566821909       14.9639186233       11.3888829533
  C        15.7286823603        4.9196342352        0.5676004918
  H        14.9531339351        4.1441642119        0.5672689190
  C         4.9130391348       15.7423661529        0.5706155721
  H         4.1374767457       14.9668812652        0.5701126196
  C         4.9086827587        4.9237292666       11.3917189021
  H         4.1331614803        4.1482175918       11.3918990320
  C         7.0262649476       15.7426922916       11.3910223401
  H         7.8015252713       14.9669087233       11.3907139461
  C         7.0228589345        4.9237920614        0.5717396340
  H         7.7979800258        4.1478591883        0.5724049583
  C        17.8464878045       15.7394773649        0.5682451433
  H        18.6215998037       14.9635793313        0.5686111603
  C        17.8442257396        4.9210619764       11.3877960923
  H        18.6192524619        4.1450528496       11.3873109680
  C        15.7301753375        7.0373024499       11.3887175464
  H        14.9548088819        7.8129616125       11.3891346819
  C        15.7320850291       17.8552003743        0.5675269123
  H        14.9565719653       18.6307316071        0.5671928413
  C         4.9088553005        7.0399710783        0.5705383440
  H         4.1335724492        7.8157125086        0.5699159494
  C         4.9116954254       17.8583443662       11.3916330813
  H         4.1362678979       18.6339328903       11.3918528305
  C         7.0230808826        7.0395794378       11.3911719279
  H         7.7982635876        7.8154379153       11.3908907014
  C         7.0275133194       17.8579973654        0.5715944478
  H         7.8026762966       18.6338456715        0.5721094129
  C        17.8430469006        7.0354803769        0.5683147191
  H        18.6182239468        7.8113475501        0.5686877478
  C        17.8468614505       17.8549887206       11.3877403821
  H        18.6221350826       18.6307455695       11.3873314624
 Kr         1.1629406019       10.6563433710       10.6563430563
