     409
 i =     176, E =    -5136.7135986491
  N         2.9795804142        5.2291747134       15.9911128098
  C         1.6601959966        5.4916172302       16.2595526953
  N        13.8183180955        5.1399349181        5.1399713919
  C        12.4986702150        5.4074275247        5.4074960205
  N        19.6314289658       17.5509578438       15.9960437410
  C        20.9488050079       17.2915145604       16.2759624584
  N         8.8352074818       17.5839967386        5.2142704896
  C        10.1536060447       17.2953498957        5.4634605367
  N        19.6757223868        5.1864785859        6.7417190074
  C        20.9931819652        5.4671225110        6.4826953319
  N         8.8352330409        5.2142144750       17.5840414865
  C        10.1536274826        5.4633964439       17.2953832154
  N         2.9699806404       17.5526212065        6.7790280975
  C         1.6540579626       17.2781868729        6.5043104235
  N        13.7768357483       17.5879809277       17.5879932697
  C        12.4549144176       17.3269923860       17.3270076578
  N        15.9899437991        3.0068537790        5.1561566059
  C        16.2536487224        1.6903133146        5.4347695417
  N        15.8924377813       13.8550494515       16.0147032091
  C        16.1655402839       12.5360438060       16.2790649770
  N        15.9479338168       19.7219627829       17.5677327301
  C        16.2210825486       21.0376396110       17.2916229269
  N        15.9502212945        8.8699804644        6.7125230650
  C        16.2213982749       10.1889047326        6.4484891873
  N         6.6547637589       19.7162682523        5.2012168635
  C         6.3818824157       21.0340120506        5.4634352107
  N         6.6806840242        8.9378401367       16.0289663364
  C         6.4007067658       10.2545219981       16.2976087013
  N         6.6776743204        3.0733318641       17.5552141442
  C         6.3999993364        1.7562280384       17.2929177023
  N         6.7056520605       13.8477783696        6.8104514336
  C         6.4434918740       12.5300123076        6.5291484526
  N         5.1334152897       15.9885189818        3.0733645176
  C         5.3916820043       16.2701306651        1.7551747428
  N         5.1478715554        5.2552796649       13.8518249615
  C         5.4251496231        5.5158693177       12.5341616849
  N        17.4920937112       16.0009682862       19.7118802051
  C        17.2302779750       16.2695592644       21.0315780559
  N        17.5088658568        5.1597499471        8.8755650212
  C        17.2385551128        5.4341983900       10.1922923953
  N         5.1073081384        6.7636266424       19.7217727133
  C         5.3724814043        6.4848518623       21.0386785959
  N         5.1193031301       17.5798637916        8.9294130830
  C         5.3819756813       17.3105143234       10.2486420978
  N        17.5353345267        6.7217435154        3.0100221884
  C        17.2620584334        6.4575551315        1.6914451848
  N        17.4662833357       17.5525010720       13.8522606366
  C        17.1931507526       17.2827159919       12.5355174745
  N         5.1173174975        3.0399122441        6.7457132617
  C         5.3770286698        1.7199642349        6.4758722289
  N         5.0990671929       13.8868337532       17.5942333136
  C         5.3709615765       12.5704341429       17.3180731059
  N        17.5045386861       19.6918956173        6.7510713557
  C        17.2464538561       21.0099553433        6.4715731575
  N        17.4835378994        8.8987742423       17.5365640534
  C        17.2011833360       10.2150875646       17.2748417971
  N         5.0980972367       19.7541067500       16.0355552152
  C         5.3748860852       21.0729612094       16.2945335291
  N         5.1695720236        8.8990248793        5.1998351627
  C         5.4358590627       10.2139236456        5.4865444618
  N        17.5125747796        3.0303576161       15.9907258427
  C        17.2398631155        1.7133376635       16.2636387723
  N        17.5154058236       13.8327309446        5.1802731174
  C        17.2433029263       12.5140039737        5.4447117647
  N         2.9464776258       16.0371815281       17.5924768519
  C         1.6290007456       16.2962056579       17.3118115155
  N        13.7917058120       15.9610214976        6.7052329815
  C        12.4748264310       16.2408386887        6.4412608833
  N        19.6627073170       15.9886191173        5.1995412396
  C        20.9789079956       16.2581472567        5.4777725521
  N         8.8043915862       16.0595507426       16.0595680038
  C        10.1231702580       16.3252017202       16.3252230480
  N        19.6534389970        6.7583207204       17.5410843943
  C        20.9727710804        6.4940194242       17.2732314985
  N         8.8642414883        6.6992001001        6.6992429290
  C        10.1789354335        6.4239369092        6.4240246001
  N         2.9914819631        6.7707500211        5.2151531406
  C         1.6738455665        6.4969179357        5.4812170179
  N        13.7917223938        6.7051758468       15.9610411811
  C        12.4748462145        6.4411908995       16.2408545960
  N        15.9598420472        5.1847375768       19.6938768538
  C        16.2383112093        5.4484919187       21.0105714843
  N        15.9126501922       15.9964348718        8.8933360133
  C        16.1746362088       16.2701513742       10.2129266530
  N        15.9583102795       17.5480511836        3.0361698138
  C        16.2267935426       17.2818946537        1.7180153705
  N        15.9606224942        6.7369045675       13.8277879477
  C        16.2277122522        6.4604742836       12.5106756050
  N         6.6589686451        5.1755317351        3.0279204315
  C         6.3839874027        5.4514469345        1.7131006578
  N         6.6583401697       16.0425113680       13.8952840553
  C         6.3888250099       16.3047063699       12.5762382387
  N         6.6455526777       17.6006204702       19.7585707291
  C         6.3844160500       17.3166388499       21.0754045067
  N         6.7382178192        6.7430486023        8.8864580382
  C         6.4586379567        6.4953377584       10.2066501340
  N        19.6534065985       17.5410633416        6.7583391075
  C        20.9727376815       17.2732236318        6.4940311543
  N         8.8142922092       17.6148436304       17.6148377783
  C        10.1313795747       17.3408111456       17.3408183879
  N         2.9914907656        5.2151963262        6.7707709714
  C         1.6738582334        5.4812338537        6.4969355389
  N        13.7945708239        5.1790919849       17.5458662395
  C        12.4759094963        5.4457119013       17.2761048586
  N         2.9464722523       17.5924840095       16.0371643066
  C         1.6289994500       17.3118151519       16.2961972623
  N        13.7945466817       17.5458266748        5.1791259938
  C        12.4758873518       17.2760754553        5.4457658579
  N        19.6627357461        5.1995297143       15.9886340241
  C        20.9789370027        5.4777669916       16.2581487748
  N         8.8530025765        5.1436417341        5.1436310938
  C        10.1742361960        5.4083114916        5.4083564579
  N         6.6455355678       19.7585721585       17.6006077793
  C         6.3844004363       21.0754080613       17.3166259861
  N         6.7381217688        8.8864669434        6.7428564924
  C         6.4585245603       10.2066597111        6.4951646042
  N         6.6589845340        3.0279394513        5.1755668293
  C         6.3839932148        1.7131223295        5.4514883459
  N         6.6583303330       13.8952906510       16.0424953672
  C         6.3888080681       12.5762505915       16.3047005998
  N        15.9583282552        3.0361535313       17.5480822347
  C        16.2268053957        1.7180016500       17.2819175216
  N        15.9605940101       13.8277541691        6.7369133557
  C        16.2276787666       12.5106394573        6.4604854312
  N        15.9598135001       19.6938522361        5.1847553137
  C        16.2382866057       21.0105469133        5.4485100649
  N        15.9126499040        8.8933156351       15.9964770636
  C        16.1746386560       10.2129066301       16.2701854997
  N        17.5045623735        6.7510591907       19.6919240452
  C        17.2464740726        6.4715592036       21.0099823254
  N        17.4835218695       17.5365399859        8.8987900688
  C        17.2011719975       17.2748169315       10.2151044777
  N         5.1172824497        6.7456557954        3.0398762181
  C         5.3770121164        6.4758194786        1.7199324539
  N         5.0990719151       17.5942434682       13.8868097765
  C         5.3709764941       17.3180764346       12.5704161262
  N        17.5125542352       15.9906928831        3.0303718409
  C        17.2398503338       16.2636150034        1.7133521647
  N        17.5154216147        5.1802508473       13.8327689126
  C        17.2433262287        5.4446901533       12.5140410083
  N         5.0981040011       16.0355787540       19.7541034125
  C         5.3748928226       16.2945546925       21.0729588555
  N         5.1696934183        5.2000001830        8.8990109291
  C         5.4359903894        5.4867025995       10.2139027701
  N        17.4920919161       19.7118670180       16.0009764136
  C        17.2302794198       21.0315642975       16.2695716627
  N        17.5088466140        8.8755295988        5.1597899615
  C        17.2385265866       10.1922553115        5.4342283608
  N         5.1334450464        3.0733772862       15.9884759641
  C         5.3916872711        1.7551790388       16.2700963778
  N         5.1477451194       13.8518464494        5.2551945261
  C         5.4250181875       12.5341830159        5.5157532418
  N        17.5353343677        3.0099924296        6.7217594118
  C        17.2620495422        1.6914166782        6.4575712232
  N        17.4662923390       13.8522463090       17.5525155688
  C        17.1931603613       12.5355010825       17.2827355897
  N         5.1073049145       19.7217901154        6.7636594238
  C         5.3724825345       21.0387015701        6.4848894039
  N         5.1192985818        8.9294340049       17.5799011892
  C         5.3819611558       10.2486596381       17.3105350407
  N        19.6757142596        6.7416838770        5.1864974366
  C        20.9931725519        6.4826658561        5.4671362580
  N         8.8369075455        6.7470731536       16.0062605128
  C        10.1541230681        6.4618543448       16.2627939786
  N         2.9700115266        6.7790294289       17.5525986688
  C         1.6540924888        6.5043057029       17.2781677431
  N        13.8138616042        6.6963300373        6.6964435493
  C        12.4981151012        6.4231037389        6.4232253511
  N         2.9795432768       15.9911647686        5.2291475333
  C         1.6601634992       16.2595867594        5.4916076584
  N        13.7571988435       16.0315924912       16.0316207690
  C        12.4434297531       16.3112730534       16.3112998317
  N        19.6314321183       15.9960389050       17.5509660064
  C        20.9488072351       16.2759608970       17.2915183777
  N         8.8368880399       16.0062160085        6.7471307642
  C        10.1540992046       16.2627668192        6.4619255408
  N         6.6776732871       17.5552292084        3.0733397423
  C         6.4000102719       17.2929370575        1.7562277278
  N         6.7057615868        6.8105603736       13.8477887781
  C         6.4436123212        6.5292810580       12.5300125390
  N         6.6547677248        5.2011821840       19.7162507685
  C         6.3818833103        5.4634007437       21.0339939806
  N         6.6806783708       16.0289111289        8.9378259352
  C         6.4007164919       16.2975812714       10.2545056680
  N        15.9479343620       17.5677239009       19.7219765844
  C        16.2210810766       17.2916100650       21.0376527960
  N        15.9502664828        6.7125094526        8.8700175133
  C        16.2214418071        6.4484748551       10.1889403667
  N        15.9899524459        5.1561335555        3.0068773677
  C        16.2536627116        5.4347480026        1.6903370575
  N        15.8924336750       16.0146832209       13.8550701676
  C        16.1655353568       16.2790412315       12.5360634754
 Zn        14.6005097055       14.7283608523       14.7283856177
 Br        13.2915293696       13.4115459416       13.4115752377
 Zn        14.7012427413        3.8526258434        3.8526409982
 Br        13.3877348907        2.5375114612        2.5375250339
 Zn         3.8509968078       14.6979825563        3.9493448502
 Br         2.5497711460       13.3658628804        2.6390322168
 Zn         3.8510743938        3.9493994000       14.6979084390
 Br         2.5498553219        2.6391115461       13.3657668251
 Zn         7.9948155206        8.0833673364       14.7485660320
 Br         9.3891494487        9.4344625551       13.5580329880
 Zn         7.9604158738       18.8657447517        3.9212455872
 Br         9.2729645185       20.1744765996        2.5995244413
 Zn        18.8179732569        8.0179472706        3.8809804924
 Br        20.1298649966        9.3401924049        2.5706699742
 Zn        18.7706949738       18.8384096531       14.7049467787
 Br        20.0862534779       20.1483567960       13.3859561567
 Zn         7.9947345028       14.7484151296        8.0832972072
 Br         9.3888406297       13.5575257856        9.4343056640
 Zn         7.9604146201        3.9211701487       18.8657566429
 Br         9.2729429415        2.5994585015       20.1745120303
 Zn        18.7707006616       14.7049417924       18.8384204937
 Br        20.0862635153       13.3859545591       20.1483675116
 Zn        18.8179821935        3.8809382414        8.0179664988
 Br        20.1298909788        2.5706272117        9.3401952824
 Zn        14.6592898030        7.9977493703        7.9977969888
 Br        13.3519916087        9.3150062734        9.3150939943
 Zn        14.6604615673       18.8739445419       18.8739541496
 Br        13.3616406598       20.1962572707       20.1962686194
 Zn         3.8231785948        8.0615804669       18.8644783459
 Br         2.4985142010        9.3634998466       20.1816184561
 Zn         3.8231754512       18.8644676649        8.0615906884
 Br         2.4985287532       20.1816151316        9.3635238621
 Zn        14.6529078091       14.6822101628        8.0141441828
 Br        13.3542822365       13.3547612644        9.3317334972
 Zn        14.6620655781        3.8946418658       18.8370419785
 Br        13.3494492033        2.5838029563       20.1575854095
 Zn         3.8038362386       14.7476287781       18.8864715077
 Br         2.4940080831       13.4287836732       20.2020996817
 Zn         3.8518423487        3.9151843194        8.0562060202
 Br         2.5369144792        2.6102988009        9.3783147032
 Zn         8.0449191690        8.0044146575        8.0042657048
 Br         9.4244334897        9.2862525160        9.2853271288
 Zn         7.9388294239       18.9003194906       18.9003027841
 Br         9.2448637090       20.2191582286       20.2191509400
 Zn        18.7830378257        8.0528354288       18.8271420451
 Br        20.0963852042        9.3685705958       20.1419843512
 Zn        18.7830160164       18.8271263127        8.0528500983
 Br        20.0963704924       20.1419683959        9.3685782515
 Zn        14.6529178684        8.0141185384       14.6822591394
 Br        13.3543269931        9.3317030752       13.3547736434
 Zn        14.6620456178       18.8370059167        3.8946605544
 Br        13.3494243521       20.1575475517        2.5838250912
 Zn         3.8517682871        8.0561706560        3.9150255492
 Br         2.5367748253        9.3782062010        2.6101416450
 Zn         3.8038321474       18.8864698651       14.7475991592
 Br         2.4939989742       20.2021163749       13.4287785830
 Zn         7.9547955402       14.7653778105       14.7653724842
 Br         9.3226106642       13.4781198375       13.4780083015
 Zn         7.9521202771        3.8655109178        3.8655148823
 Br         9.2344821070        2.5356444418        2.5356635755
 Zn        18.8113404146       14.7048042973        3.8945215223
 Br        20.1307815563       13.3978507569        2.5768490406
 Zn        18.8113647893        3.8945060958       14.7048331720
 Br        20.1308046651        2.5768307718       13.3978799286
 Zn         5.9042946465        6.0065574284       16.7833280875
 Zn        16.6991328237       16.7810507609       16.7810624947
 Zn        16.7454939708        5.9417907352        5.9418206065
 Zn         5.9042684190       16.7833195766        6.0065548092
 Zn         5.9266835233        5.9567878294        5.9567480551
 Zn        16.7235129476       16.7636684071        5.9603546215
 Zn         5.8791132701       16.8272687549       16.8272599191
 Zn        16.7235304993        5.9603379924       16.7636937519
  N         3.7215420337        6.0071295725       16.7732203573
  N        14.5625143430        5.9195312922        5.9195930086
  N        18.8844112040       16.7683608320       16.7683689651
  N         8.0895240404       16.8036064754        5.9909034380
  N        18.9289002829        5.9580943931        5.9581310805
  N         8.0895476052        5.9908632345       16.8036521239
  N         3.7215084463       16.7732650881        6.0071112492
  N        14.5134928823       16.8049624100       16.8049820740
  N        16.7645066962        3.7552807006        5.9353783563
  N        16.6796617053       14.6001358245       16.7848642480
  N        16.7168683230       18.9699990473       16.7861245920
  N        16.7297801504        8.1260516783        5.9336891942
  N         5.8837006506       18.9717460115        5.9872008944
  N         5.9042505877        8.1873409706       16.8049938519
  N         5.9105000821        3.8202680341       16.7674931485
  N         5.9227549616       14.5964154176        6.0372711651
  N         5.9104843523       16.7675312229        3.8202656057
  N         5.9228610082        6.0373554995       14.5964050646
  N        16.7168729874       16.7861155831       18.9700124459
  N        16.7298099508        5.9336578299        8.1260880342
  N         5.8837076534        5.9871658777       18.9717280766
  N         5.9042360034       16.8049448241        8.1873258952
  N        16.7645068287        5.9353579443        3.7553075243
  N        16.6796546789       16.7848480014       14.6001532944
  N         5.8927269685        3.7802730503        5.9589458718
  N         5.8787193475       14.6381094190       16.8222018432
  N        16.7267503513       18.9461319983        5.9718922231
  N        16.7043323984        8.1492352740       16.7630970315
  N         5.8676746636       19.0100143165       16.8243613858
  N         5.9568055574        8.1458385092        5.9616098989
  N        16.7362803695        3.7798187265       16.7678224409
  N        16.7386119581       14.5769290056        5.9616196387
  N         3.6933291042       16.8204169265       16.8204112768
  N        14.5398476357       16.7517656532        5.9421653685
  N        18.9112684726       16.7646099165        5.9753266754
  N         8.0625519417       16.8389186201       16.8389191458
  N        18.9112988274        5.9753097303       16.7646352245
  N         8.1118658703        5.9246205966        5.9246042020
  N         3.7384077955        5.9944353148        5.9943893612
  N        14.5398681137        5.9421318566       16.7517972967
  N        16.7267735014        5.9718732316       18.9461580151
  N        16.7043226899       16.7630618844        8.1492540076
  N        16.7362539200       16.7677897851        3.7798333991
  N        16.7386374159        5.9615976855       14.5769650036
  N         5.8926964655        5.9589013687        3.7802450120
  N         5.8787276052       16.8222127585       14.6380951450
  N         5.8676804065       16.8243744011       19.0100104713
  N         5.9569044347        5.9618030759        8.1458206890
  C        11.2770707798       15.7689271659       15.7689593808
  H        11.2653781990       14.9935007649       14.9935395366
  C        11.3358024173        4.8580926100        4.8581297012
  H        11.3360789915        4.0825783089        4.0825724632
  C         0.5030933924       15.7080449961        4.9358984732
  H         0.5081558277       14.9313240761        4.1615524702
  C         0.5031205850        4.9359055884       15.7080250078
  H         0.5081731800        4.1615654638       14.9312984122
  C        11.3142396412        6.9874450876       15.6892320688
  H        11.3123603590        7.7492252985       14.9003428748
  C        11.3152125634       17.8443575441        4.9139603332
  H        11.3160965016       18.6347223234        4.1536119831
  C         0.5133928913        7.0405021533        4.9251633326
  H         0.5127959152        7.8156550522        4.1492660203
  C         0.4689284100       17.8515584379       15.7360186330
  H         0.4687098002       18.6270314213       14.9604340742
  C        11.3142223589       15.6892219589        6.9875279343
  H        11.3123483433       14.9003380122        7.7493139952
  C        11.3152387369        4.9139056264       17.8443936069
  H        11.3161287881        4.1535701201       18.6347704139
  C         0.4689348059       15.7360230427       17.8515601919
  H         0.4687217919       14.9604395353       18.6270344849
  C         0.5134095438        4.9251775521        7.0405385237
  H         0.5128265048        4.1492972120        7.8157081271
  C        11.3390651654        6.9727644439        6.9729085075
  H        11.3380422203        7.7481981826        7.7483651374
  C        11.2995213998       17.8836075703       17.8836131180
  H        11.3092953661       18.6591232721       18.6591196668
  C         0.4898247341        7.0480314057       17.8260842766
  H         0.4846180171        7.8218392150       18.6032311669
  C         0.4897883178       17.8260844637        7.0480461213
  H         0.4845743772       18.6032237809        7.8218613127
  C        15.6131117970       11.3743120820       15.7325857383
  H        14.8295021411       11.3742741442       14.9653130630
  C        15.7008632371        0.5307164952        4.8870721350
  H        14.9311545085        0.5310230972        4.1057838433
  C         4.8781303007       11.3781621352        4.9547306723
  H         4.0995178446       11.3854738290        4.1822846006
  C         4.8374324704        0.5923606693       15.7289142166
  H         4.0670717257        0.5894152919       14.9483386479
  C        15.6742661437       11.3484069433        7.0035781935
  H        14.8983404902       11.3468294060        7.7787650764
  C        15.6771044565        0.5613679856       17.8394677963
  H        14.9054259463        0.5669572546       18.6188233521
  C         4.8248539009       11.4053304153       17.8620363549
  H         4.0485572167       11.3990495466       18.6368195395
  C         4.8276398457        0.5625508932        7.0332504285
  H         4.0577876380        0.5668709083        7.8143731262
  C         6.9446100859       11.4198440676       15.7519793286
  H         7.7250707000       11.4259763401       14.9816261926
  C         6.9273659980        0.5502477437        4.9020202512
  H         7.6968244915        0.5452926086        4.1204316798
  C        17.7906034146       11.3545744229        4.8900697521
  H        18.5666937166       11.3561516225        4.1152333815
  C        17.7823823072        0.5488800065       15.7144029138
  H        18.5541978007        0.5435229230       14.9352609553
  C         7.0032249904       11.3640715453        7.0592389015
  H         7.7849124069       11.3541832461        7.8281762705
  C         6.9379286568        0.5976736004       17.8581952506
  H         7.7080324768        0.6013232573       18.6391381137
  C        17.7525129226       11.3753856509       17.8226701259
  H        18.5373045110       11.3756115567       18.5888696746
  C        17.8001502966        0.5304924244        7.0184121694
  H        18.5693203304        0.5299646232        7.8002063860
  C        15.6131112152       15.7325537007       11.3743330680
  H        14.8295048319       14.9652778001       11.3742979186
  C        15.7008855329        4.8870493315        0.5307385685
  H        14.9311804119        4.1057575856        0.5310396726
  C         4.8374286188       15.7289460933        0.5923554972
  H         4.0670607145       14.9483773155        0.5894127622
  C         4.8782725053        4.9548606105       11.3781389783
  H         4.0996686128        4.1824055047       11.3854265146
  C         6.9446244962       15.7519707410       11.4198358563
  H         7.7250791284       14.9816115704       11.4259807833
  C         6.9273689094        4.9019853132        0.5502291838
  H         7.6968326025        4.1204021457        0.5452738149
  C        17.7823758928       15.7143856662        0.5488943278
  H        18.5541919670       14.9352442087        0.5435365320
  C        17.7906234251        4.8900376149       11.3546137451
  H        18.5667045489        4.1151920022       11.3561973715
  C        15.6743129123        7.0035728758       11.3484393723
  H        14.8983958982        7.7787682274       11.3468564662
  C        15.6770991070       17.8394508574        0.5613826883
  H        14.9054211783       18.6188070580        0.5669715790
  C         4.8276262053        7.0332038280        0.5625267179
  H         4.0577683350        7.8143216286        0.5668486204
  C         4.8248709021       17.8620294685       11.4053048600
  H         4.0485731191       18.6368116754       11.3990158864
  C         7.0033357063        7.0593988819       11.3640775619
  H         7.7850033893        7.8283554489       11.3542060177
  C         6.9379494923       17.8582030713        0.5976735093
  H         7.7080617997       18.6391370172        0.6013218890
  C        17.8001618898        7.0183998123        0.5305239798
  H        18.5693271484        7.8001985568        0.5300004417
  C        17.7524993165       17.8226513855       11.3753997959
  H        18.5372867875       18.5888553286       11.3756245787
 Kr         6.8349543131       11.3339424658       11.3346851274
