     409
 i =     176, E =    -5136.7094918249
  N         2.9355698652        5.1949855408       16.0031617953
  C         1.6189292716        5.4691695822       16.2724458368
  N        13.7430836141        5.1604552786        5.1604765914
  C        12.4241741451        5.4285001370        5.4285222848
  N        19.6542473603       17.5855902547       16.0295588954
  C        20.9716407085       17.3106509798       16.2949850097
  N         8.8035779012       17.5701190152        5.1810367212
  C        10.1215527344       17.2970713259        5.4482102140
  N        19.6090054210        5.1995386228        6.7551498457
  C        20.9264085071        5.4700262724        6.4856758111
  N         8.8034018954        5.1810545483       17.5700939135
  C        10.1214757523        5.4481840779       17.2970813449
  N         2.9394275651       17.5553079702        6.7540884161
  C         1.6217671128       17.2871636750        6.4857455182
  N        13.7888710465       17.6005000291       17.6005250310
  C        12.4712977078       17.3288690852       17.3288851900
  N        15.9218616848        3.0300301484        5.1772178684
  C        16.1974293702        1.7142728947        5.4481681753
  N        15.9508594161       13.8814855525       16.0376487297
  C        16.2175980756       12.5618168393       16.3028903356
  N        15.9527738798       19.7418652692       17.5876893283
  C        16.2138048553       21.0589855930       17.3083385155
  N        15.8880270878        8.8898531481        6.7310748300
  C        16.1608818053       10.2102430436        6.4738231402
  N         6.6333061211       19.7117255797        5.1914206365
  C         6.3556539700       21.0278616615        5.4569290164
  N         6.6644931247        8.8980778852       16.0141558744
  C         6.4024848968       10.2181884844       16.2862109652
  N         6.6411005803        3.0431614554       17.5695515437
  C         6.3749742460        1.7249818428       17.3013123843
  N         6.6340969481       13.8474096429        6.7372388558
  C         6.3655216134       12.5291737682        6.4659130340
  N         5.0867888158       16.0116827406        3.0363515854
  C         5.3611458190       16.2838273214        1.7202257366
  N         5.0803385269        5.1800094691       13.8481165651
  C         5.3505268728        5.4493209642       12.5303266135
  N        17.5034647058       16.0265005808       19.7416425907
  C        17.2260769428       16.2891522831       21.0593403027
  N        17.4490550499        5.1819057123        8.8989712482
  C        17.1798052470        5.4615373779       10.2149724525
  N         5.0828753869        6.7527491151       19.7081541181
  C         5.3440480497        6.4766659171       21.0263698304
  N         5.0974851444       17.5578834267        8.9045361649
  C         5.3791716027       17.2942468024       10.2209290660
  N        17.4729545548        6.7381669924        3.0371556037
  C        17.2097580999        6.4671229684        1.7187854762
  N        17.5072012628       17.5915389117       13.8732841169
  C        17.2336532329       17.3181122478       12.5569018394
  N         5.0628055993        3.0253983176        6.7352785174
  C         5.3340952258        1.7074056711        6.4678235965
  N         5.1195957871       13.8593407054       17.5736742177
  C         5.3895502456       12.5421792761       17.3015562507
  N        17.4842983135       19.7223840375        6.7477356400
  C        17.2154177406       21.0387224799        6.4719038389
  N        17.4858480240        8.9166228558       17.5874139000
  C        17.2224427906       10.2351476034       17.3156936857
  N         5.1116702555       19.7216311721       16.0156774938
  C         5.3734339921       21.0401675403       16.2864126420
  N         5.0810530884        8.8920839466        5.1725472221
  C         5.3518392021       10.2088913356        5.4453668164
  N        17.4711981239        3.0582184352       15.9989624153
  C        17.2100622921        1.7401267865       16.2749130932
  N        17.4654456217       13.8537065449        5.2188043700
  C        17.1875504246       12.5362793772        5.4808207374
  N         2.9695578678       16.0121108548       17.5680435168
  C         1.6522229438       16.2863562388       17.3020079820
  N        13.7623664909       16.0168899224        6.7408817393
  C        12.4438194653       16.2786355565        6.4630729794
  N        19.6213811293       16.0035509767        5.2107362760
  C        20.9391161089       16.2732130798        5.4764583715
  N         8.8350726088       16.0361047462       16.0360997531
  C        10.1522935042       16.3085524157       16.3085558723
  N        19.6257426727        6.7620774425       17.5637679117
  C        20.9420437101        6.4900838203       17.2908183209
  N         8.7840974780        6.7152681048        6.7152996201
  C        10.1016895744        6.4442793747        6.4443154346
  N         2.9238665935        6.7489349512        5.1930049732
  C         1.6066475135        6.4826174121        5.4669556218
  N        13.7622512892        6.7408530904       16.0169267204
  C        12.4437423201        6.4630435271       16.2786532691
  N        15.9327543502        5.1883287711       19.7168250702
  C        16.2027751881        5.4534666113       21.0348454245
  N        15.9299897578       16.0324354782        8.9213802649
  C        16.2065193708       16.3001147345       10.2392680432
  N        15.9200226628       17.5588155748        3.0551781503
  C        16.1977081329       17.2935606930        1.7388689604
  N        15.9080146329        6.7737079270       13.8531679373
  C        16.1700780476        6.4953341904       12.5343154674
  N         6.6118012017        5.1734731202        3.0243302766
  C         6.3452226129        5.4478386268        1.7073996918
  N         6.6844745876       16.0281225701       13.8618001527
  C         6.4122169488       16.2927712334       12.5422303806
  N         6.6606093292       17.5776020833       19.7291893057
  C         6.3853415380       17.3056883251       21.0451582614
  N         6.6367980540        6.7270005102        8.8871839813
  C         6.3676088142        6.4609272992       10.2065811694
  N        19.6260696395       17.5638790356        6.7622704844
  C        20.9420539875       17.2909267271        6.4900242864
  N         8.8291859254       17.5917240249       17.5917083047
  C        10.1484491661       17.3243772988       17.3243736991
  N         2.9238870432        5.1930142140        6.7489142829
  C         1.6066513475        5.4669538072        6.4826187160
  N        13.7620005527        5.1974369022       17.5841476497
  C        12.4439669850        5.4571026985       17.3041196903
  N         2.9695439655       17.5680532554       16.0120917307
  C         1.6522224039       17.3020137729       16.2863475739
  N        13.7621049122       17.5841163207        5.1974519860
  C        12.4440707016       17.3040945847        5.4571309426
  N        19.6210470772        5.2108332920       16.0037079152
  C        20.9391100287        5.4765477000       16.2731223742
  N         8.7821977619        5.1600698456        5.1600660568
  C        10.1011634645        5.4285438058        5.4285586931
  N         6.6606085117       19.7292181810       17.5775929405
  C         6.3853106565       21.0451466482       17.3056532535
  N         6.6368425198        8.8872204501        6.7270028829
  C         6.3676617979       10.2065729448        6.4609147821
  N         6.6118034082        3.0243620479        5.1734307270
  C         6.3452606525        1.7073874328        5.4477719316
  N         6.6844550987       13.8618371681       16.0281178333
  C         6.4121908388       12.5422220923       16.2927574282
  N        15.9199397520        3.0552609968       17.5588155874
  C        16.1976002086        1.7387880828       17.2935873325
  N        15.9081621099       13.8531210044        6.7736766809
  C        16.1701815182       12.5342588695        6.4952661953
  N        15.9328275274       19.7168817278        5.1883453438
  C        16.2028623562       21.0347700347        5.4535131366
  N        15.9299024309        8.9213453819       16.0324730807
  C        16.2064808588       10.2392197833       16.3001199764
  N        17.4841536617        6.7475936911       19.7222828952
  C        17.2153613324        6.4718578404       21.0387686074
  N        17.4859592495       17.5874166614        8.9167111835
  C        17.2224654990       17.3156774836       10.2352006820
  N         5.0627926573        6.7353357033        3.0253849500
  C         5.3340725090        6.4678805142        1.7074371660
  N         5.1195739067       17.5737109574       13.8592722479
  C         5.3895725529       17.3015717273       12.5421808566
  N        17.4713979970       15.9988448514        3.0580791294
  C        17.2101539999       16.2749053751        1.7401750772
  N        17.4652577288        5.2188698894       13.8538020670
  C        17.1874559291        5.4808737944       12.5363365487
  N         5.1116781546       16.0157022091       19.7216182909
  C         5.3734487403       16.2864390875       21.0401945774
  N         5.0810682823        5.1725588465        8.8920140150
  C         5.3518015374        5.4453691099       10.2088970106
  N        17.5034554072       19.7417078004       16.0265220320
  C        17.2260237275       21.0592816264       16.2891830665
  N        17.4491406600        8.8989350615        5.1818332145
  C        17.1798844628       10.2149134978        5.4614691923
  N         5.0867692197        3.0364362810       16.0117302831
  C         5.3610883236        1.7202050043       16.2837806374
  N         5.0803847717       13.8481220317        5.1799923586
  C         5.3506052362       12.5303179986        5.4493201403
  N        17.4729224947        3.0371903333        6.7382729278
  C        17.2097728617        1.7187310012        6.4672140009
  N        17.5071902252       13.8732513470       17.5915344328
  C        17.2336455593       12.5568525244       17.3181148782
  N         5.0829034133       19.7082422224        6.7527772768
  C         5.3441157958       21.0263470965        6.4765997855
  N         5.0974351931        8.9045449335       17.5578522026
  C         5.3791053514       10.2209247577       17.2942393481
  N        19.6090017530        6.7550732363        5.1995772123
  C        20.9263931182        6.4856257059        5.4700575573
  N         8.8030845714        6.7158053936       15.9947118698
  C        10.1213701253        6.4506025473       16.2684396597
  N         2.9394443030        6.7540342364       17.5552460880
  C         1.6216980886        6.4858164033       17.2870488366
  N        13.7401014496        6.7156946660        6.7157192221
  C        12.4230146579        6.4441968819        6.4442270906
  N         2.9355503384       16.0031207129        5.1949403103
  C         1.6189960415       16.2725356066        5.4690719091
  N        13.7932811451       16.0455516318       16.0455816973
  C        12.4744265499       16.3132022936       16.3132229915
  N        19.6542484938       16.0295284690       17.5856015588
  C        20.9716589957       16.2949756538       17.3106519841
  N         8.8032266227       15.9946963736        6.7158489534
  C        10.1214498635       16.2684456884        6.4506274741
  N         6.6412177605       17.5695671571        3.0430694344
  C         6.3750282668       17.3013375884        1.7250263708
  N         6.6340284787        6.7372677635       13.8474001361
  C         6.3654426350        6.4659344507       12.5291783740
  N         6.6331843852        5.1914575460       19.7116372570
  C         6.3555909090        5.4569739489       21.0279071172
  N         6.6645425920       16.0141775715        8.8980691881
  C         6.4025383296       16.2862264110       10.2181941158
  N        15.9528324556       17.5876119948       19.7418151109
  C        16.2138412789       17.3083206161       21.0590480971
  N        15.8879574762        6.7311455674        8.8898933303
  C        16.1608109704        6.4738919367       10.2102872700
  N        15.9218368467        5.1770942794        3.0300066806
  C        16.1974136558        5.4481023705        1.7143310236
  N        15.9508703729       16.0376515525       13.8815314056
  C        16.2176026855       16.3028851281       12.5618499378
 Zn        14.6618656020       14.7604080118       14.7604268493
 Br        13.3382717902       13.4542494409       13.4541963898
 Zn        14.6239379491        3.8789272454        3.8790008072
 Br        13.3298368429        2.5542521059        2.5543229979
 Zn         3.7900917575       14.7168238123        3.8921623972
 Br         2.4703683406       13.4127190123        2.5729498384
 Zn         3.7900581031        3.8921559844       14.7168128174
 Br         2.4703066460        2.5729825939       13.4127090234
 Zn         7.9337848116        8.0113260059       14.7178262994
 Br         9.2320605893        9.3222654135       13.3937229623
 Zn         7.9360507411       18.8664120054        3.8993177330
 Br         9.2457515915       20.1843588100        2.5847338085
 Zn        18.7545247624        8.0436956879        3.8987682935
 Br        20.0710675636        9.3564129610        2.5860089518
 Zn        18.7985179504       18.8813549408       14.7341255562
 Br        20.1132945125       20.1989656934       13.4229677058
 Zn         7.9338660998       14.7178223740        8.0113356533
 Br         9.2321319720       13.3937111686        9.3222929726
 Zn         7.9359391707        3.8993154183       18.8664314808
 Br         9.2456355326        2.5847367752       20.1843637975
 Zn        18.7985369132       14.7340626057       18.8813529566
 Br        20.1133118198       13.4229100372       20.1989618763
 Zn        18.7544705411        3.8987905112        8.0438264231
 Br        20.0710081226        2.5860539194        9.3565653505
 Zn        14.6017932532        8.0059268176        8.0058807335
 Br        13.2860449445        9.3156354074        9.3152879674
 Zn        14.6619509636       18.8863905434       18.8864303086
 Br        13.3517151386       20.2031280531       20.2031814850
 Zn         3.7959780044        8.0521307400       18.8426695429
 Br         2.4846969971        9.3656296331       20.1611255084
 Zn         3.7960264499       18.8426844675        8.0521161677
 Br         2.4847590835       20.1611695221        9.3656130717
 Zn        14.6308804628       14.7550784092        8.0541976245
 Br        13.2903622923       13.5071684498        9.3966098974
 Zn        14.6305127191        3.9008915862       18.8653581550
 Br        13.3210412652        2.5796852494       20.1770026035
 Zn         3.8273095312       14.7178708935       18.8637258568
 Br         2.5070916387       13.4051797061       20.1741643285
 Zn         3.7812804085        3.8903399115        8.0340585137
 Br         2.4649579534        2.5782119725        9.3497472227
 Zn         7.9227899843        8.0063332181        8.0063434145
 Br         9.2483194296        9.3109853235        9.3110171062
 Zn         7.9524704075       18.8784565519       18.8784458871
 Br         9.2559881168       20.1982289433       20.1981966279
 Zn        18.7751597308        8.0482822283       18.8738914209
 Br        20.0994359629        9.3480264086       20.1921047161
 Zn        18.7752372287       18.8738756382        8.0483543200
 Br        20.0995102636       20.1920972469        9.3481003085
 Zn        14.6307345162        8.0541898737       14.7551652290
 Br        13.2902000525        9.3966889541       13.5073823568
 Zn        14.6306642471       18.8653203343        3.9009142317
 Br        13.3211519693       20.1769617925        2.5797230108
 Zn         3.7812715379        8.0341201873        3.8903591614
 Br         2.4649601675        9.3498045653        2.5782205809
 Zn         3.8272983235       18.8637215605       14.7178540651
 Br         2.5070947540       20.1741653023       13.4051496787
 Zn         7.9662099921       14.7482134557       14.7482048732
 Br         9.2800547760       13.4376749179       13.4376741988
 Zn         7.9035454983        3.8764760773        3.8764291131
 Br         9.2119225744        2.5583339532        2.5582865931
 Zn        18.7616274421       14.7090807271        3.9244666306
 Br        20.0687086586       13.3843644778        2.6126007990
 Zn        18.7614784453        3.9244774489       14.7091073015
 Br        20.0685573123        2.6126225761       13.3843823018
 Zn         5.8635562249        5.9621843811       16.7788778230
 Zn        16.7264862816       16.8179890171       16.8180349699
 Zn        16.6756972734        5.9555120302        5.9555499969
 Zn         5.8637171957       16.7788392930        5.9622218446
 Zn         5.8472181553        5.9525527585        5.9525667877
 Zn        16.6988875846       16.7882103884        5.9903555836
 Zn         5.8973976227       16.7962518443       16.7962414180
 Zn        16.6988433541        5.9902693061       16.7883158688
  N         3.6841160806        5.9730738150       16.7791199648
  N        14.4885086659        5.9391968107        5.9392206493
  N        18.9076939834       16.8100340949       16.8100351066
  N         8.0562910660       16.7823331859        5.9486440174
  N        18.8620784690        5.9765873554        5.9766289650
  N         8.0561998179        5.9486195079       16.7823465566
  N         3.6842179921       16.7790590012        5.9731418159
  N        14.5379689130       16.8237382786       16.8237701104
  N        16.6937496785        3.7799532324        5.9577968055
  N        16.7303174189       14.6244228989       16.8168052183
  N        16.7322813400       18.9954150903       16.8114543473
  N        16.6676352316        8.1474950777        5.9512164238
  N         5.8627644466       18.9630526076        5.9746452969
  N         5.8754284859        8.1544712206       16.7834087412
  N         5.8619045689        3.7860931842       16.7895693878
  N         5.8574034924       14.5943506030        5.9592037558
  N         5.8620839259       16.7896174524        3.7861198967
  N         5.8572652697        5.9591328439       14.5943380010
  N        16.7322416043       16.8114577069       18.9954444450
  N        16.6676063015        5.9512354989        8.1475410962
  N         5.8625913248        5.9747049253       18.9630795251
  N         5.8755626007       16.7833519489        8.1544569523
  N        16.6938321724        5.9577311218        3.7799855920
  N        16.7302931767       16.8167728572       14.6244612208
  N         5.8365055114        3.7715144167        5.9527560586
  N         5.9024887908       14.6072555087       16.8026456433
  N        16.7076230344       18.9725548510        5.9710488135
  N        16.7044150768        8.1725660100       16.8110547053
  N         5.8896320498       18.9786227576       16.7966625639
  N         5.8582991657        8.1427660119        5.9481087377
  N        16.6915163422        3.8037203198       16.7763692099
  N        16.6909435849       14.5999441734        6.0003149650
  N         3.7161709812       16.7879796391       16.7879659818
  N        14.5088755316       16.8053397709        5.9743992671
  N        18.8768789548       16.7843110151        5.9881833688
  N         8.0855354729       16.8123634594       16.8123477550
  N        18.8768722446        5.9880412919       16.7844395703
  N         8.0365510391        5.9384890682        5.9384965937
  N         3.6703241644        5.9686495378        5.9686294439
  N        14.5087648501        5.9743594352       16.8054038036
  N        16.7076087815        5.9710552149       18.9726228938
  N        16.7044498510       16.8109171047        8.1725874384
  N        16.6915594993       16.7763964672        3.8037835793
  N        16.6908519326        6.0002209884       14.5999720815
  N         5.8364728884        5.9528343701        3.7715176913
  N         5.9025088862       16.8026362854       14.6072522817
  N         5.8896618055       16.7967064427       18.9786229205
  N         5.8582748364        5.9480848222        8.1427661560
  C        11.3155206910       15.7614159628       15.7614335023
  H        11.3193440168       14.9859259329       14.9859472208
  C        11.2625653414        4.8787396590        4.8787547273
  H        11.2619442098        4.1031659179        4.1031701449
  C         0.4572241116       15.7222324389        4.9232323337
  H         0.4547224856       14.9459306594        4.1484118370
  C         0.4571294930        4.9232695699       15.7221007964
  H         0.4546448496        4.1484273064       14.9458643560
  C        11.2820679754        6.9979659971       15.7159484935
  H        11.2818625052        7.7647278738       14.9318891513
  C        11.2831981393       17.8555637254        4.9087241587
  H        11.2836678148       18.6401981723        4.1424374699
  C         0.4464954049        7.0345038603        4.9189873725
  H         0.4466617057        7.8094487860        4.1428735649
  C         0.4918955074       17.8561400816       15.7407815324
  H         0.4920016074       18.6318284883       14.9654243664
  C        11.2821637833       15.7159507618        6.9979972641
  H        11.2819444029       14.9318854107        7.7647708215
  C        11.2830809717        4.9086875389       17.8555951189
  H        11.2835495837        4.1424225138       18.6402195373
  C         0.4919113477       15.7407755823       17.8561413222
  H         0.4920251557       14.9654198855       18.6318261880
  C         0.4465228191        4.9189718506        7.0345386549
  H         0.4467186519        4.1428668333        7.8094895010
  C        11.2623314139        6.9935838365        6.9936326905
  H        11.2624685585        7.7689939655        7.7690532934
  C        11.3078173993       17.8761593348       17.8761638055
  H        11.3048832280       18.6516692326       18.6516692923
  C         0.4637014072        7.0375773454       17.8393856576
  H         0.4661615171        7.8121127113       18.6158676519
  C         0.4638014662       17.8394372180        7.0374758415
  H         0.4662512546       18.6158909687        7.8120822681
  C        15.6632555369       11.4037587552       15.7514003053
  H        14.8868404201       11.4083179370       14.9769251718
  C        15.6529213052        0.5519271320        4.8979694780
  H        14.8802535593        0.5480498824        4.1195734633
  C         4.8017411382       11.3702513163        4.8975737879
  H         4.0263317960       11.3707312663        4.1219183452
  C         4.8183827255        0.5567358026       15.7338605428
  H         4.0447048360        0.5512492037       14.9564890209
  C        15.6144829701       11.3695423468        7.0324288654
  H        14.8371100350       11.3629995182        7.8058977764
  C        15.6575417848        0.5785320421       17.8526083873
  H        14.8848450391        0.5782108425       18.6309664995
  C         4.8312287992       11.3823500578       17.8437595425
  H         4.0497792266       11.3836607269       18.6133498076
  C         4.7911027709        0.5467101535        7.0240655578
  H         4.0190943987        0.5464072812        7.8030663608
  C         6.9615733646       11.3794671395       15.7449431414
  H         7.7423329357       11.3783202659       14.9748513667
  C         6.8971769367        0.5479931905        4.8992059747
  H         7.6689657562        0.5484981504        4.1199456257
  C        17.7341880676       11.3781602708        4.9229380298
  H        18.5115927945       11.3827781729        4.1492684050
  C        17.7659097645        0.5801126504       15.7300934678
  H        18.5389176305        0.5805904783       14.9520901593
  C         6.9159221269       11.3671025198        7.0132477595
  H         7.6912886400       11.3666660477        7.7888398265
  C         6.9282142015        0.5683835102       17.8553559737
  H         7.7013644090        0.5735535020       18.6332121594
  C        17.7782821644       11.3928584028       17.8659550018
  H        18.5535223153       11.3879741472       18.6417851521
  C        17.7617771519        0.5610742023        7.0204921122
  H        18.5349905037        0.5645117224        7.7983314253
  C        15.6632759744       15.7513937990       11.4037806088
  H        14.8868692768       14.9769163774       11.4083409233
  C        15.6528554871        4.8979051743        0.5519554320
  H        14.8801866987        4.1195100092        0.5480858878
  C         4.8184197947       15.7339009228        0.5567386478
  H         4.0447335364       14.9565166466        0.5512713622
  C         4.8016887641        4.8975686499       11.3702186131
  H         4.0263005682        4.1219163782       11.3706928891
  C         6.9616047369       15.7449607294       11.3794450129
  H         7.7423611820       14.9748663158       11.3783242091
  C         6.8971388436        4.8992421953        0.5479893955
  H         7.6689166131        4.1199767749        0.5484782432
  C        17.7659811781       15.7300722673        0.5800863601
  H        18.5389987707       14.9520505421        0.5805624833
  C        17.7340970511        4.9229935226       11.3782129986
  H        18.5114744259        4.1493276395       11.3828279118
  C        15.6143925387        7.0324989163       11.3695713751
  H        14.8370138705        7.8059686041       11.3630308793
  C        15.6576213526       17.8525708753        0.5785516835
  H        14.8849163903       18.6309200233        0.5782524494
  C         4.7910583343        7.0241306997        0.5467122453
  H         4.0190599785        7.8031206766        0.5464251273
  C         4.8312717575       17.8437697242       11.3823119278
  H         4.0498091848       18.6133713721       11.3836134171
  C         6.9158577917        7.0132750550       11.3670770445
  H         7.6912219771        7.7888700613       11.3666645021
  C         6.9282449886       17.8553651626        0.5683785606
  H         7.7014080453       18.6332148664        0.5735282397
  C        17.7617521839        7.0204128382        0.5610694358
  H        18.5349677068        7.7982215607        0.5645092961
  C        17.7782998456       17.8659452038       11.3929068511
  H        18.5535625862       18.6417823148       11.3880222687
 Kr        11.2929085025       11.3792979252       11.3793277564
