     409
 i =     176, E =    -5136.7096472197
  N         3.0468250618        5.2035578042       16.0176886265
  C         1.7290342651        5.4747149370       16.2870938910
  N        13.8646635454        5.2027335776        5.2027343488
  C        12.5471563205        5.4731826272        5.4731869587
  N        19.7292734716       17.5737556859       16.0174304857
  C        21.0471584384       17.3025060225       16.2868390825
  N         8.9089783844       17.5746236345        5.2032429072
  C        10.2264832662       17.3038550507        5.4731896067
  N        19.7283738196        5.2033383388        6.7595733254
  C        21.0462567165        5.4746187025        6.4902636152
  N         8.9089764887        5.2032164565       17.5746491138
  C        10.2264818061        5.4731919978       17.3038486889
  N         3.0466133840       17.5741605912        6.7597083168
  C         1.7288725280       17.3027775777        6.4901918881
  N        13.8658188517       17.5741365218       17.5741353566
  C        12.5482549850       17.3038122329       17.3038053328
  N        16.0158901176        3.0480327263        5.2031909702
  C        16.2855980650        1.7302247482        5.4742152514
  N        16.0172191815       13.8662764685       16.0177602398
  C        16.2875399823       12.5488853997       16.2879042501
  N        16.0168000522       19.7299984339       17.5737101551
  C        16.2860867102       21.0478963320       17.3023330055
  N        16.0165318293        8.9105177332        6.7589721093
  C        16.2869688182       10.2278601671        6.4887950469
  N         6.7580720526       19.7307166703        5.2034914473
  C         6.4883144322       21.0485633042        5.4744706140
  N         6.7577444302        8.9108551204       16.0180865256
  C         6.4873939229       10.2282299711       16.2882239264
  N         6.7580663196        3.0486436133       17.5744142948
  C         6.4887860269        1.7308230351       17.3030702686
  N         6.7576304035       13.8666456288        6.7594342389
  C         6.4873296052       12.5492801169        6.4891693790
  N         5.2020198677       16.0179288389        3.0485451425
  C         5.4733351797       16.2873802581        1.7307434623
  N         5.2014138990        5.2032633916       13.8669167440
  C         5.4717043920        5.4735869793       12.5494096969
  N        17.5730820484       16.0172901961       19.7300475981
  C        17.3017138610       16.2866291315       21.0479234109
  N        17.5729106353        5.2028222093        8.9101782844
  C        17.3026470378        5.4732537785       10.2277094888
  N         5.2016580837        6.7597375246       19.7306980203
  C         5.4725944942        6.4900977513       21.0485084784
  N         5.2015927446       17.5745564275        8.9108037767
  C         5.4718670857       17.3039448574       10.2282489820
  N        17.5723514297        6.7592288522        3.0481187183
  C        17.3012794800        6.4896605132        1.7302812396
  N        17.5734933763       17.5739836357       13.8664344064
  C        17.3031552011       17.3035130008       12.5489109023
  N         5.2012928935        3.0484691085        6.7596465060
  C         5.4724396333        1.7307194418        6.4900357065
  N         5.2020301028       13.8669462772       17.5745305760
  C         5.4720531961       12.5494267973       17.3039405603
  N        17.5726977633       19.7301267182        6.7591975190
  C        17.3014698630       21.0479910070        6.4896674825
  N        17.5730843905        8.9101010079       17.5741304806
  C        17.3029618297       10.2276504653       17.3035590136
  N         5.2023719791       19.7305728723       16.0178137213
  C         5.4734980198       21.0484495499       16.2873193269
  N         5.2010529732        8.9108624525        5.2032619744
  C         5.4715388108       10.2282850659        5.4735891522
  N        17.5727029022        3.0481660026       16.0172422084
  C        17.3014790896        1.7303143088       16.2866512159
  N        17.5732434263       13.8664070451        5.2029684537
  C        17.3028234093       12.5489126655        5.4732796417
  N         3.0473208824       16.0179270504       17.5742355988
  C         1.7295218604       16.2871088546       17.3026976933
  N        13.8649985617       16.0176579711        6.7588165611
  C        12.5476098395       16.2878859627        6.4884560099
  N        19.7288890572       16.0173542882        5.2032802625
  C        21.0467316469       16.2868606932        5.4745015026
  N         8.9094976950       16.0181578840       16.0181591721
  C        10.2269382706       16.2883765669       16.2883710502
  N        19.7287104275        6.7593144934       17.5738705269
  C        21.0466264595        6.4900267813       17.3026494158
  N         8.9088952325        6.7592842243        6.7592866551
  C        10.2262141440        6.4889341304        6.4889389614
  N         3.0461609769        6.7600981176        5.2037996095
  C         1.7284370307        6.4904540648        5.4748829836
  N        13.8650072329        6.7588424153       16.0176360015
  C        12.5475958309        6.4884586397       16.2878818864
  N        16.0162323609        5.2030363400       19.7300949699
  C        16.2857273383        5.4741076977       21.0479495015
  N        16.0168332247       16.0178060340        8.9104185240
  C        16.2873495174       16.2879300767       10.2277792243
  N        16.0164390682       17.5735690381        3.0480295048
  C        16.2859330237       17.3022533978        1.7302321583
  N        16.0168291250        6.7589933754       13.8662429286
  C        16.2871234510        6.4887828575       12.5488434138
  N         6.7575761519        5.2034773110        3.0486298392
  C         6.4880427529        5.4745031187        1.7308208273
  N         6.7580240386       16.0181101143       13.8667052406
  C         6.4875440036       16.2882157222       12.5493055101
  N         6.7585717734       17.5743664497       19.7306874466
  C         6.4890710036       17.3030988061       21.0485138045
  N         6.7574001020        6.7594951933        8.9109500334
  C         6.4871957897        6.4891692086       10.2283101901
  N        19.7287269823       17.5738819231        6.7593239434
  C        21.0466166942       17.3026537750        6.4900267725
  N         8.9095348026       17.5744479168       17.5744479296
  C        10.2269965128       17.3039907373       17.3039842290
  N         3.0461607821        5.2037937275        6.7601015694
  C         1.7284371272        5.4748809472        6.4904548668
  N        13.8652003096        5.2027428864       17.5741190572
  C        12.5476881362        5.4729562816       17.3036247176
  N         3.0473339202       17.5742440058       16.0179201134
  C         1.7295162385       17.3026925016       16.2871148658
  N        13.8651927698       17.5741436762        5.2027132947
  C        12.5476971349       17.3036309185        5.4729511268
  N        19.7288781603        5.2032742962       16.0173469887
  C        21.0467399393        5.4745016817       16.2868567155
  N         8.9084766963        5.2031155485        5.2031163977
  C        10.2259997373        5.4733523939        5.4733565754
  N         6.7585592532       19.7306846576       17.5743548080
  C         6.4890689152       21.0485134343       17.3030960578
  N         6.7574032455        8.9109542667        6.7594967557
  C         6.4871942615       10.2283057761        6.4891701861
  N         6.7575812735        3.0486251546        5.2034680354
  C         6.4880454597        1.7308195544        5.4744983702
  N         6.7580378226       13.8667054973       16.0180988150
  C         6.4875468506       12.5493027602       16.2882120263
  N        16.0164372716        3.0480294817       17.5735644821
  C        16.2859266759        1.7302300658       17.3022525744
  N        16.0168302891       13.8662251830        6.7589952520
  C        16.2871204014       12.5488566639        6.4887841755
  N        16.0162310907       19.7300991812        5.2030286652
  C        16.2857276392       21.0479454981        5.4741088559
  N        16.0168331005        8.9103965108       16.0178071914
  C        16.2873602934       10.2277920179       16.2879255378
  N        17.5726996563        6.7591981492       19.7301112688
  C        17.3014705783        6.4896633520       21.0479995378
  N        17.5730921367       17.5741344955        8.9101058274
  C        17.3029516732       17.3035635265       10.2276452731
  N         5.2012808732        6.7596578407        3.0484571160
  C         5.4724341480        6.4900405783        1.7307242960
  N         5.2020176595       17.5745381183       13.8669478859
  C         5.4720548457       17.3039382312       12.5494271747
  N        17.5727081040       16.0172401293        3.0481438299
  C        17.3014891064       16.2866466724        1.7303237936
  N        17.5732317811        5.2029722929       13.8664146861
  C        17.3028212331        5.4732811904       12.5489044927
  N         5.2023863882       16.0178252664       19.7305734491
  C         5.4734993353       16.2873201014       21.0484498099
  N         5.2010525969        5.2032611245        8.9108567846
  C         5.4715387433        5.4735856247       10.2282889849
  N        17.5730762002       19.7300512050       16.0172950394
  C        17.3017069660       21.0479261421       16.2866309814
  N        17.5729075517        8.9101739057        5.2028248250
  C        17.3026531318       10.2277131290        5.4732472738
  N         5.2020237944        3.0485304188       16.0179330766
  C         5.4733312221        1.7307488155       16.2873753122
  N         5.2014205094       13.8669169551        5.2032664123
  C         5.4717018572       12.5494066638        5.4735860864
  N        17.5723640737        3.0481234152        6.7592395479
  C        17.3012834772        1.7302809083        6.4896659574
  N        17.5734920362       13.8664263972       17.5739842205
  C        17.3031549344       12.5489160074       17.3035029372
  N         5.2016518282       19.7306900876        6.7597447491
  C         5.4725988134       21.0485133898        6.4900950127
  N         5.2015785619        8.9108019795       17.5745669767
  C         5.4718641404       10.2282444208       17.3039442949
  N        19.7283825008        6.7595711698        5.2033379435
  C        21.0462537131        6.4902681933        5.4746131416
  N         8.9091903570        6.7591472280       16.0181254033
  C        10.2265482463        6.4886248142       16.2880918547
  N         3.0466059748        6.7597077409       17.5741606015
  C         1.7288764570        6.4901878074       17.3027708819
  N        13.8645617598        6.7590209661        6.7590209231
  C        12.5471838008        6.4888053190        6.4888091534
  N         3.0468388346       16.0176882346        5.2035557408
  C         1.7290276862       16.2870930341        5.4747103721
  N        13.8654552029       16.0178428454       16.0178435231
  C        12.5480758450       16.2881877553       16.2881819906
  N        19.7292783226       16.0174197007       17.5737636381
  C        21.0471589210       16.2868367130       17.3025068339
  N         8.9091771024       16.0180971746        6.7591738782
  C        10.2265596986       16.2880895598        6.4886299305
  N         6.7580608342       17.5744055166        3.0486328183
  C         6.4887919617       17.3030753907        1.7308267068
  N         6.7576316084        6.7594338979       13.8666325548
  C         6.4873350030        6.4891707901       12.5492889376
  N         6.7580824455        5.2034794950       19.7307068561
  C         6.4883121024        5.4744713551       21.0485656621
  N         6.7577490161       16.0180808657        8.9108470386
  C         6.4873906605       16.2882282818       10.2282403375
  N        16.0168003227       17.5737130564       19.7299928853
  C        16.2860847209       17.3023414932       21.0478935617
  N        16.0165416478        6.7589565271        8.9105202015
  C        16.2869731373        6.4887874169       10.2278555904
  N        16.0158822039        5.2031828781        3.0480239553
  C        16.2856015407        5.4742162063        1.7302256897
  N        16.0172139581       16.0177511413       13.8662814951
  C        16.2875308594       16.2879041224       12.5488789606
 Zn        14.7207528650       14.7213036512       14.7213035307
 Br        13.4058280861       13.4064952867       13.4065001445
 Zn        14.7212240080        3.9056746088        3.9056644628
 Br        13.4044419958        2.5917966296        2.5917934395
 Zn         3.9047062006       14.7228330528        3.9060226451
 Br         2.5904978494       13.4064705471        2.5921111109
 Zn         3.9046993349        3.9060221599       14.7228295132
 Br         2.5904927035        2.5921140689       13.4064650491
 Zn         8.0543494561        8.0555145762       14.7215011335
 Br         9.3690585269        9.3704051365       13.4066105534
 Zn         8.0529506450       18.8718655157        3.9062978950
 Br         9.3694914368       20.1854889357        2.5919905246
 Zn        18.8701631224        8.0538892329        3.9058408642
 Br        20.1835936775        9.3705991931        2.5915229299
 Zn        18.8706241490       18.8711444752       14.7227438812
 Br        20.1843333155       20.1848695625       13.4056773713
 Zn         8.0543548617       14.7215171585        8.0555077603
 Br         9.3690502797       13.4066159784        9.3703974561
 Zn         8.0529523407        3.9063107950       18.8718514032
 Br         9.3694808734        2.5919974521       20.1854824436
 Zn        18.8706270400       14.7227451701       18.8711406266
 Br        20.1843347311       13.4056735828       20.1848698334
 Zn        18.8701521860        3.9058412833        8.0538891894
 Br        20.1835934443        2.5915332083        9.3705931739
 Zn        14.7201651168        8.0553777159        8.0553716952
 Br        13.4053576420        9.3702368007        9.3702358972
 Zn        14.7223376620       18.8712069777       18.8712045539
 Br        13.4053739921       20.1849906684       20.1849923196
 Zn         3.9046497417        8.0543757323       18.8718000038
 Br         2.5903217441        9.3711397560       20.1852317733
 Zn         3.9046501044       18.8718054728        8.0543711100
 Br         2.5903267760       20.1852334773        9.3711342217
 Zn        14.7204521786       14.7212352980        8.0552646726
 Br        13.4055746333       13.4064316348        9.3701149474
 Zn        14.7217600560        3.9057064753       18.8713226293
 Br        13.4048909524        2.5914544687       20.1847311726
 Zn         3.9052185389       14.7229953766       18.8717676759
 Br         2.5908667241       13.4063910560       20.1853212834
 Zn         3.9041575590        3.9060195193        8.0545494094
 Br         2.5899578788        2.5922724757        9.3710934217
 Zn         8.0542110808        8.0555924308        8.0555900563
 Br         9.3689015138        9.3704928647        9.3704896379
 Zn         8.0532868552       18.8716291005       18.8716440523
 Br         9.3702574814       20.1854021774       20.1854023219
 Zn        18.8702242216        8.0536795973       18.8713289378
 Br        20.1839305056        9.3706364209       20.1851569000
 Zn        18.8702334066       18.8713287739        8.0536732083
 Br        20.1839294454       20.1851538446        9.3706349037
 Zn        14.7204417900        8.0552513646       14.7212458752
 Br        13.4055800206        9.3701152445       13.4064362601
 Zn        14.7217498593       18.8713147232        3.9057199812
 Br        13.4049003348       20.1847281718        2.5914508996
 Zn         3.9041652334        8.0545467565        3.9060078450
 Br         2.5899542549        9.3710968191        2.5922694965
 Zn         3.9052342905       18.8717708092       14.7229987287
 Br         2.5908686794       20.1853133186       13.4064009205
 Zn         8.0545201788       14.7215824882       14.7215919558
 Br         9.3691993347       13.4066788882       13.4066806872
 Zn         8.0526437622        3.9060568780        3.9060672549
 Br         9.3688046581        2.5919263233        2.5919201740
 Zn        18.8705055135       14.7225978773        3.9059670441
 Br        20.1839453280       13.4057553523        2.5917717270
 Zn        18.8705089677        3.9059786630       14.7225990714
 Br        20.1839412950        2.5917753405       13.4057605900
 Zn         5.9794485120        5.9830264325       16.7971225030
 Zn        16.7946256128       16.7959253775       16.7959416385
 Zn        16.7928179088        5.9820483327        5.9820455174
 Zn         5.9794523917       16.7971169593        5.9830256451
 Zn         5.9783693449        5.9830636108        5.9830537653
 Zn        16.7936401608       16.7959667186        5.9819628008
 Zn         5.9806174109       16.7970943313       16.7971033473
 Zn        16.7936324254        5.9819769505       16.7959688466
  N         3.7935057215        5.9812082909       16.7965390766
  N        14.6111923969        5.9808992023        5.9809007708
  N        18.9824395578       16.7961430114       16.7961226362
  N         8.1623903083       16.7965402722        5.9814379296
  N        18.9815260910        5.9808986630        5.9809049366
  N         8.1623833685        5.9814473814       16.7965326319
  N         3.7934993255       16.7965396649        5.9812137401
  N        14.6122676695       16.7959275968       16.7959353725
  N        16.7945098020        3.7948727114        5.9808170774
  N        16.7952641668       14.6130295801       16.7959241265
  N        16.7955381111       18.9832222442       16.7960671112
  N        16.7945817132        8.1637476465        5.9808910090
  N         5.9795323545       18.9839089904        5.9812386420
  N         5.9797501644        8.1642171277       16.7964099586
  N         5.9794225019        3.7954376406       16.7966920402
  N         5.9795649178       14.6134945225        5.9813940953
  N         5.9794178230       16.7966838085        3.7954381510
  N         5.9795569820        5.9813869902       14.6135051891
  N        16.7955281972       16.7960741708       18.9832192370
  N        16.7945680253        5.9808918426        8.1637500632
  N         5.9795368577        5.9812319602       18.9839069771
  N         5.9797463394       16.7964122994        8.1642316808
  N        16.7945190025        5.9808270279        3.7948753867
  N        16.7952840401       16.7959227395       14.6130285175
  N         5.9789641741        3.7954113112        5.9811728018
  N         5.9801819041       14.6135309788       16.7964519282
  N        16.7949318849       18.9832966293        5.9806817667
  N        16.7947879144        8.1636727190       16.7960785021
  N         5.9800218921       18.9838380764       16.7966240579
  N         5.9791721437        8.1642941957        5.9814330811
  N        16.7950246482        3.7949096847       16.7959871106
  N        16.7950155353       14.6130040924        5.9809715857
  N         3.7941203666       16.7967620953       16.7967647428
  N        14.6117130553       16.7959433492        5.9808684201
  N        18.9819454220       16.7960755231        5.9807146055
  N         8.1628643822       16.7963533172       16.7963596794
  N        18.9819558860        5.9807218185       16.7960844516
  N         8.1619495617        5.9812262336        5.9812281539
  N         3.7929365247        5.9815385925        5.9815500735
  N        14.6116989561        5.9808588490       16.7959611292
  N        16.7949305772        5.9806874217       18.9833035443
  N        16.7948029557       16.7960769922        8.1636564853
  N        16.7950185067       16.7959969286        3.7949180763
  N        16.7950050756        5.9809708267       14.6129847837
  N         5.9789837129        5.9811539696        3.7954177244
  N         5.9801883307       16.7964379517       14.6135278922
  N         5.9800121902       16.7966102712       18.9838382248
  N         5.9791643290        5.9814263292        8.1642976533
  C        11.3874263973       15.7386350510       15.7386297479
  H        11.3872623042       14.9631604294       14.9631606594
  C        11.3865225456        4.9237106764        4.9237164550
  H        11.3863784588        4.1483032181        4.1483109626
  C         0.5680275143       15.7372686334        4.9256807095
  H         0.5686715146       14.9616273860        4.1504504431
  C         0.5680070445        4.9256837180       15.7372677484
  H         0.5686682426        4.1504513652       14.9616284673
  C        11.3870884779        7.0380749087       15.7382019788
  H        11.3870438233        7.8134772634       14.9626720359
  C        11.3870876506       17.8532705021        4.9235408588
  H        11.3870626218       18.6287508230        4.1481934757
  C         0.5673593281        7.0400129329        4.9257310799
  H         0.5678996045        7.8155652681        4.1504234282
  C         0.5684018491       17.8515154676       15.7373018713
  H         0.5689148778       18.6267863195       14.9617164457
  C        11.3870737982       15.7382027573        7.0380766218
  H        11.3870464473       14.9626729126        7.8134758655
  C        11.3870981203        4.9235410332       17.8532674901
  H        11.3870659450        4.1481984815       18.6287468088
  C         0.5684026997       15.7373012069       17.8515137551
  H         0.5689107393       14.9617091334       18.6267899149
  C         0.5673610440        4.9257311411        7.0400126248
  H         0.5678919265        4.1504283020        7.8155604577
  C        11.3867727853        7.0385340577        7.0385393096
  H        11.3868354742        7.8140012446        7.8140069752
  C        11.3877169121       17.8534121528       17.8534048613
  H        11.3878217671       18.6288189878       18.6288165250
  C         0.5676876363        7.0397093260       17.8517344604
  H         0.5680849847        7.8152334872       18.6270562472
  C         0.5677050884       17.8517360809        7.0397079180
  H         0.5680884860       18.6270569236        7.8152353354
  C        15.7378239440       11.3883402169       15.7382296572
  H        14.9622961253       11.3883813611       14.9628139622
  C        15.7359807943        0.5691495678        4.9252094665
  H        14.9602812677        0.5695997166        4.1500374063
  C         4.9220403514       11.3888942371        4.9240563540
  H         4.1465799925       11.3889138629        4.1486897582
  C         4.9244801799        0.5696207055       15.7376517534
  H         4.1492394691        0.5700403169       14.9620322426
  C        15.7373253232       11.3883709420        7.0384063857
  H        14.9617256344       11.3884113640        7.8137450900
  C        15.7363485978        0.5690955748       17.8512343741
  H        14.9607353210        0.5695324567       18.6264754602
  C         4.9224169118       11.3888897333       17.8534658223
  H         4.1470527402       11.3889208660       18.6289237458
  C         4.9234525950        0.5696376073        7.0396462519
  H         4.1481576063        0.5700674220        7.8152113900
  C         7.0370226192       11.3887452969       15.7384575667
  H         7.8124369318       11.3886503500       14.9629344271
  C         7.0377886662        0.5698142441        4.9254478730
  H         7.8133770565        0.5703841506        4.1501785946
  C        17.8522929783       11.3882516744        4.9237374441
  H        18.6276247580       11.3881840570        4.1482483943
  C        17.8504895568        0.5692345093       15.7369592786
  H        18.6256907619        0.5697911714       14.9612930009
  C         7.0369406503       11.3887743351        7.0388312119
  H         7.8124019009       11.3886882694        7.8142958919
  C         7.0385122699        0.5697971809       17.8520928352
  H         7.8140441829        0.5703742943       18.6274222446
  C        17.8525998919       11.3882174646       17.8530192649
  H        18.6279552922       11.3881563975       18.6284837547
  C        17.8504138279        0.5692524467        7.0392423701
  H        18.6256753155        0.5697757528        7.8148221789
  C        15.7378182793       15.7382363050       11.3883555979
  H        14.9622933809       14.9628098495       11.3883854826
  C        15.7359830364        4.9252090859        0.5691357944
  H        14.9602814170        4.1500355251        0.5695966569
  C         4.9244780546       15.7376502997        0.5696227083
  H         4.1492414246       14.9620339203        0.5700482426
  C         4.9220402364        4.9240540543       11.3888850430
  H         4.1465824930        4.1486917567       11.3889152273
  C         7.0370217722       15.7384595653       11.3887427240
  H         7.8124321765       14.9629375669       11.3886488210
  C         7.0377899511        4.9254474762        0.5698084769
  H         7.8133732638        4.1501840764        0.5703842290
  C        17.8504928251       15.7369609770        0.5692231280
  H        18.6256990565       14.9612881370        0.5697816670
  C        17.8522885922        4.9237409689       11.3882673698
  H        18.6276168534        4.1482478739       11.3881840596
  C        15.7373239322        7.0384047456       11.3883851470
  H        14.9617218772        7.8137353938       11.3884121401
  C        15.7363502770       17.8512398427        0.5690805059
  H        14.9607390442       18.6264769961        0.5695345199
  C         4.9234522920        7.0396447696        0.5696351720
  H         4.1481498603        7.8152167207        0.5700652368
  C         4.9224201101       17.8534645103       11.3888886447
  H         4.1470549491       18.6289208443       11.3889235008
  C         7.0369421319        7.0388290109       11.3887690146
  H         7.8124065150        7.8142974766       11.3886826615
  C         7.0385134054       17.8520933146        0.5697972797
  H         7.8140511878       18.6274258177        0.5703685860
  C        17.8504175728        7.0392412499        0.5692374769
  H        18.6256765462        7.8148192510        0.5697728059
  C        17.8525949887       17.8530273216       11.3882374715
  H        18.6279527059       18.6284816840       11.3881550769
 Kr         0.1135116843       10.7708851837       10.7708850778
