     409
 i =     176, E =    -5136.6918446970
  N         2.9233904713        5.2020537112       15.9703667125
  C         1.6064614637        5.4780799949       16.2404778996
  N        13.7161647676        5.0570813209        5.0572384750
  C        12.3965894067        5.3284915520        5.3295722959
  N        19.6746486834       17.6053473388       16.0491186075
  C        20.9912724174       17.3168265553       16.3011367852
  N         8.7846166081       17.5467631770        5.1743263782
  C        10.1051614879       17.2678365818        5.4225380098
  N        19.5895059286        5.1978918659        6.7547303443
  C        20.9072895741        5.4712354561        6.4880348732
  N         8.7840451221        5.1739135995       17.5476163046
  C        10.1046408978        5.4215349826       17.2684750005
  N         2.9304959708       17.5249454254        6.7593841348
  C         1.6120716488       17.2578937500        6.4919602538
  N        13.8047651586       17.6623819303       17.6624153434
  C        12.4888888194       17.3828854014       17.3830909427
  N        15.9415001029        2.9940868008        5.1347989629
  C        16.2129163701        1.6827026275        5.4227881425
  N        15.9819811544       13.9169854068       16.0678034748
  C        16.2519892674       12.5952475305       16.3210169368
  N        15.9891991336       19.7792025560       17.6195292714
  C        16.2348303027       21.0944397402       17.3192175364
  N        15.8366829138        8.8400504856        6.6961061797
  C        16.1101867213       10.1655163973        6.4711707433
  N         6.6067738785       19.6820036674        5.1885582547
  C         6.3245741338       20.9973976933        5.4494310842
  N         6.6934982409        8.8932095585       15.9916379296
  C         6.4363910260       10.2143158902       16.2667580947
  N         6.6180960078        3.0425987217       17.5459812549
  C         6.3548520934        1.7237100262       17.2811427974
  N         6.6275572601       13.8127371356        6.7426151497
  C         6.3622577566       12.4953490082        6.4632382236
  N         5.0732854233       15.9799185468        3.0305846981
  C         5.3473857443       16.2573990328        1.7146081699
  N         5.0729016710        5.1855227009       13.8192218683
  C         5.3454807003        5.4483405110       12.5006033651
  N        17.5295266488       16.0481725406       19.7740957402
  C        17.2397937146       16.2930477900       21.0921376350
  N        17.4084461453        5.1663229192        8.8804753589
  C        17.1346890955        5.4707380993       10.1907088635
  N         5.0715314194        6.7636331676       19.6793782871
  C         5.3228288516        6.4789440715       20.9977856525
  N         5.1078576494       17.5181445592        8.9034319955
  C         5.4015227143       17.2628826544       10.2188542402
  N        17.4730672176        6.7147507993        3.0156561671
  C        17.2137970624        6.4523879994        1.6948933494
  N        17.5334774414       17.6256590936       13.8985050606
  C        17.2638035867       17.3392027166       12.5835085262
  N         5.0292075214        2.9980914512        6.7145822091
  C         5.3011715394        1.6784560027        6.4546141984
  N         5.1524620468       13.8556719075       17.5515703217
  C         5.4229036480       12.5394136359       17.2782826414
  N        17.4812572259       19.7021989330        6.7573791916
  C        17.2167204049       21.0168383355        6.4730285492
  N        17.5031773014        8.9402811677       17.5935265622
  C        17.2476863476       10.2602732077       17.3210257237
  N         5.1119508918       19.7119148837       16.0015485036
  C         5.3662405732       21.0328669944       16.2697412510
  N         5.0836383216        8.8638151943        5.1503830705
  C         5.3536965559       10.1789794646        5.4305971242
  N        17.4453017576        3.0913635504       15.9547513793
  C        17.2003243448        1.7725413368       16.2448995641
  N        17.4132994772       13.8322425054        5.2946370501
  C        17.1361448575       12.5113537088        5.5377061103
  N         2.9866577830       15.9907643585       17.5453409948
  C         1.6698319014       16.2725478679       17.2880299800
  N        13.7539168932       15.9845464622        6.6976639504
  C        12.4337162265       16.2349301177        6.4135981283
  N        19.6041441089       15.9661588741        5.2381188642
  C        20.9245858728       16.2383672082        5.4938058434
  N         8.8730725979       16.0548609834       16.0551378279
  C        10.1843275199       16.3419969188       16.3423539390
  N        19.6163915602        6.7746980929       17.5404370236
  C        20.9313210257        6.4996949575       17.2636658702
  N         8.7754680454        6.6490878533        6.6507524062
  C        10.0858243249        6.3625356723        6.3647084714
  N         2.9052615317        6.7443208170        5.1894467477
  C         1.5878794413        6.4822535853        5.4673952387
  N        13.7535410422        6.6956370967       15.9851051246
  C        12.4333602135        6.4116169566       16.2351991259
  N        15.9384245098        5.1897159543       19.6909018405
  C        16.2113707988        5.4476462565       21.0078905763
  N        15.9556275531       16.0300346886        8.9514267609
  C        16.2353959506       16.3005391311       10.2700395000
  N        15.9093882123       17.5293160405        3.0860344676
  C        16.1969553808       17.2725825273        1.7714128204
  N        15.8506894766        6.8506338256       13.8094060717
  C        16.1126194092        6.5508455451       12.4934448589
  N         6.5603382784        5.1357240352        2.9893622556
  C         6.3008441345        5.4235923608        1.6749735604
  N         6.7382306473       16.0249987627       13.8601150496
  C         6.4580032101       16.2819025759       12.5398655121
  N         6.6486432549       17.5754773354       19.7301496323
  C         6.3706626325       17.2963876268       21.0442766130
  N         6.6508820682        6.6935588888        8.8514256706
  C         6.3750885519        6.4401670140       10.1724880232
  N        19.6166046003       17.5403073570        6.7746602201
  C        20.9315639049       17.2635968682        6.4996619234
  N         8.8374628959       17.6107037317       17.6107627411
  C        10.1628478335       17.3573354858       17.3575193952
  N         2.9053890059        5.1889439774        6.7450629155
  C         1.5879290132        5.4667611237        6.4831241181
  N        13.7444258620        5.1950243187       17.5914134386
  C        12.4280389685        5.4341001037       17.2874587246
  N         2.9866686898       17.5453086691       15.9907920467
  C         1.6698431223       17.2880145218       16.2725660916
  N        13.7449487383       17.5901804689        5.1960637173
  C        12.4285539241       17.2866704813        5.4354859510
  N        19.6038355450        5.2386532807       15.9659308096
  C        20.9242911767        5.4940523145       16.2382259064
  N         8.7456932427        5.0940662531        5.0942853609
  C        10.0700682160        5.3481529142        5.3491993108
  N         6.6486182860       19.7300225456       17.5755588260
  C         6.3706057803       21.0441413157       17.2965245556
  N         6.6513969088        8.8510272514        6.6935910716
  C         6.3755588436       10.1720950511        6.4402013303
  N         6.5605358032        2.9890346929        5.1359316514
  C         6.3010868698        1.6746099046        5.4237095560
  N         6.7381708920       13.8599575691       16.0251204340
  C         6.4579355916       12.5397127099       16.2820460539
  N        15.9093956463        3.0861215094       17.5294928166
  C        16.1969912832        1.7715374696       17.2725848821
  N        15.8525606476       13.8085310121        6.8487770579
  C        16.1149152857       12.4926506605        6.5487584116
  N        15.9384007501       19.6907993082        5.1898299436
  C        16.2113489205       21.0078288617        5.4478807007
  N        15.9566013940        8.9514357545       16.0309475044
  C        16.2362261317       10.2700606292       16.3009698566
  N        17.4813548063        6.7571044641       19.7023472005
  C        17.2168620820        6.4726643305       21.0169182859
  N        17.5026143886       17.5925492946        8.9399438610
  C        17.2470450713       17.3204474148       10.2599808086
  N         5.0290404725        6.7143941064        2.9985807731
  C         5.3009607217        6.4545316223        1.6789091339
  N         5.1525537005       17.5514903362       13.8557760619
  C         5.4230073977       17.2781779550       12.5395240932
  N        17.4456931660       15.9549717262        3.0910587840
  C        17.2004818007       16.2451141960        1.7722768722
  N        17.4113376470        5.2963576249       13.8324655265
  C        17.1338286335        5.5396762062       12.5117001504
  N         5.1119416122       16.0014972900       19.7120155791
  C         5.3662752734       16.2696267709       21.0329721430
  N         5.0835837792        5.1498695240        8.8642717595
  C         5.3534741840        5.4303127313       10.1794218845
  N        17.5294945115       19.7742333369       16.0480145942
  C        17.2397616087       21.0923056859       16.2929224922
  N        17.4112976025        8.8801918408        5.1636714014
  C        17.1374478368       10.1903310734        5.4682724279
  N         5.0730624552        3.0304712366       15.9803700186
  C         5.3472374452        1.7144872397       16.2577031234
  N         5.0730395491       13.8187709632        5.1857210614
  C         5.3457128877       12.5001670699        5.4485050074
  N        17.4722630631        3.0158017199        6.7160827658
  C        17.2133929151        1.6949179316        6.4533003163
  N        17.5334019258       13.8988709255       17.6256193254
  C        17.2640872126       12.5837831148       17.3392839762
  N         5.0718330643       19.6789505097        6.7636346619
  C         5.3231216440       20.9973514562        6.4789426659
  N         5.1077330771        8.9033291177       17.5183764843
  C         5.4014240113       10.2187427776       17.2630598718
  N        19.5897024749        6.7531809305        5.1983330984
  C        20.9072737818        6.4866906667        5.4720045180
  N         8.7960643257        6.6719434387       15.9363462811
  C        10.1111330135        6.3960652605       16.2147315981
  N         2.9302430065        6.7593578360       17.5252312165
  C         1.6118159856        6.4919698739       17.2580788997
  N        13.7220069585        6.6092415834        6.6115332662
  C        12.4038679132        6.3433599141        6.3457739208
  N         2.9236204161       15.9701395703        5.2020351750
  C         1.6067236819       16.2403642263        5.4780094042
  N        13.8281392435       16.1079432830       16.1084603438
  C        12.5058984208       16.3670365250       16.3675119670
  N        19.6746358220       16.0491669120       17.6052955169
  C        20.9912699096       16.3011619481       17.3167937501
  N         8.7963535808       15.9361481752        6.6730520927
  C        10.1114844498       16.2145673035        6.3976204066
  N         6.6183878790       17.5454917191        3.0427719378
  C         6.3550347210       17.2808112802        1.7238671931
  N         6.6272425468        6.7425802484       13.8131312974
  C         6.3618927053        6.4632079334       12.4957500295
  N         6.6063118177        5.1884207509       19.6824195172
  C         6.3241953347        5.4493587019       20.9977985837
  N         6.6934362068       15.9912140844        8.8934058205
  C         6.4363930748       16.2664834271       10.2144849323
  N        15.9891330279       17.6195439543       19.7791022800
  C        16.2347704153       17.3192417724       21.0943244883
  N        15.8334957532        6.6988013433        8.8410204545
  C        16.1074405508        6.4736434748       10.1662073350
  N        15.9417015759        5.1341162352        2.9940553927
  C        16.2129936889        5.4221999244        1.6826210035
  N        15.9818431404       16.0680936406       13.9171095480
  C        16.2515012371       16.3211180268       12.5952687586
 Zn        14.6896766529       14.8236402575       14.8235916186
 Br        13.2402163335       13.5960494305       13.5915235614
 Zn        14.6537585641        3.7959860987        3.7961734180
 Br        13.3987792826        2.4551195951        2.4554927998
 Zn         3.7833788474       14.6865046654        3.8953999099
 Br         2.4542449923       13.3901424568        2.5765106028
 Zn         3.7832346452        3.8952943529       14.6870624580
 Br         2.4540005519        2.5765466096       13.3905817584
 Zn         7.9492464796        8.0072208104       14.6727417554
 Br         9.2380703618        9.3176610837       13.3281543329
 Zn         7.9084762064       18.8378047864        3.8982507435
 Br         9.2223333890       20.1602447472        2.5901499937
 Zn        18.7305034867        8.0311064811        3.8908010128
 Br        20.0471960349        9.3563948508        2.5916745232
 Zn        18.8257191098       18.9138881664       14.7619515146
 Br        20.1368198573       20.2272887311       13.4424452754
 Zn         7.9492658335       14.6722105659        8.0076088733
 Br         9.2377322697       13.3277032476        9.3185436390
 Zn         7.9079973747        3.8979815476       18.8385442474
 Br         9.2219128527        2.5897994420       20.1608379597
 Zn        18.8257170035       14.7620940525       18.9138609599
 Br        20.1367164912       13.4422091736       20.2269607646
 Zn        18.7284798266        3.8918283297        8.0334550634
 Br        20.0444895288        2.5933463975        9.3597986069
 Zn        14.5434645657        7.9015641046        7.8990586818
 Br        13.0469996136        9.1168614965        9.0800251068
 Zn        14.7050081267       18.9375903320       18.9375525048
 Br        13.4078102160       20.2599949811       20.2600961493
 Zn         3.7945750364        8.0613356623       18.8069057178
 Br         2.4865069477        9.3819689373       20.1211602793
 Zn         3.7947329375       18.8065721844        8.0613294082
 Br         2.4867261602       20.1210228696        9.3818700338
 Zn        14.6029301433       14.7992592665        8.0967382174
 Br        13.0472667391       14.1018809751        9.5973191896
 Zn        14.6224055537        3.9041091890       18.8559833292
 Br        13.3214271008        2.5754322595       20.1651021992
 Zn         3.8429942856       14.7010465419       18.8352348225
 Br         2.5238933420       13.3828910325       20.1425859292
 Zn         3.7649916935        3.8782973604        8.0179783134
 Br         2.4473664441        2.5761792134        9.3434245358
 Zn         7.9503510942        7.9577480067        7.9581328502
 Br         9.2339639475        9.2873587831        9.2891568663
 Zn         7.9371212027       18.8861217432       18.8861923616
 Br         9.2187041910       20.2173333076       20.2173804993
 Zn        18.7828875344        8.0546642135       18.8691958655
 Br        20.1146734762        9.3349520481       20.1988053700
 Zn        18.7825882543       18.8685205039        8.0547547648
 Br        20.1141506439       20.1984019540        9.3351361804
 Zn        14.6017862309        8.0975671112       14.8037758461
 Br        13.0420677208        9.6013925528       14.1216815046
 Zn        14.6222851653       18.8547598390        3.9046858031
 Br        13.3211381326       20.1642041017        2.5763708903
 Zn         3.7647233182        8.0175984203        3.8790726120
 Br         2.4475204984        9.3432309892        2.5767605721
 Zn         3.8430247038       18.8351620559       14.7010620327
 Br         2.5239968973       20.1425506696       13.3828746987
 Zn         8.0382212775       14.7518814014       14.7520927474
 Br         9.3208927790       13.4205224628       13.4209860805
 Zn         7.8446724297        3.8206636757        3.8207516886
 Br         9.1395051806        2.4961486519        2.4962662169
 Zn        18.7166776471       14.6638559569        3.9814884417
 Br        20.0118286550       13.3228517956        2.6732127911
 Zn        18.7157974218        3.9830018011       14.6635859267
 Br        20.0102917723        2.6748243462       13.3218478884
 Zn         5.8545247554        5.9653649692       16.7509664830
 Zn        16.7600525745       16.8589516082       16.8587511305
 Zn        16.6628669009        5.9051733837        5.9047354688
 Zn         5.8547459523       16.7503174636        5.9654901755
 Zn         5.8347371104        5.9211014173        5.9218005473
 Zn        16.6729127066       16.7780028338        6.0147828636
 Zn         5.9203509550       16.7850967478       16.7851952286
 Zn        16.6726460347        6.0147340916       16.7786934343
  N         3.6731558775        5.9785429280       16.7468204724
  N        14.4660311659        5.8336521520        5.8344768680
  N        18.9287164855       16.8367843892       16.8367442693
  N         8.0435083108       16.7430805382        5.9322710370
  N        18.8429472651        5.9723957176        5.9734080008
  N         8.0430948496        5.9317772782       16.7437156295
  N         3.6734090728       16.7465220296        5.9785836778
  N        14.5630583548       16.8894408744       16.8896514928
  N        16.7031213836        3.7504414584        5.9185662752
  N        16.7566183466       14.6553355149       16.8556468795
  N        16.7710905055       19.0309006380       16.8477979787
  N        16.6236264898        8.1128856905        5.9096914247
  N         5.8474640876       18.9336299044        5.9821810027
  N         5.8898354432        8.1519247077       16.7493258272
  N         5.8434619220        3.7833223388       16.7606797542
  N         5.8494869904       14.5624507061        5.9680756071
  N         5.8437621994       16.7601291433        3.7834590145
  N         5.8492964628        5.9679344903       14.5628773676
  N        16.7710694190       16.8478971411       19.0307629778
  N        16.6203491746        5.9120665174        8.1133522284
  N         5.8470712652        5.9820826917       18.9340508103
  N         5.8898759493       16.7489404724        8.1520708432
  N        16.7037316623        5.9173637528        3.7503249841
  N        16.7567418591       16.8558521995       14.6552089504
  N         5.7926398551        3.7403905350        5.9183258555
  N         5.9470875467       14.6040404087       16.7926387334
  N        16.7067808795       18.9497072733        5.9810299778
  N        16.7219407537        8.1998888285       16.8141261302
  N         5.8867956177       18.9740589330       16.7908885732
  N         5.8681297745        8.1106459761        5.9151648331
  N        16.6666841133        3.8354203592       16.7347535432
  N        16.6382433932       14.5676232608        6.0833256139
  N         3.7338907333       16.7621378525       16.7621898411
  N        14.4949617827       16.8028876163        5.9615225536
  N        18.8632579617       16.7543388784        6.0117853398
  N         8.1084411156       16.8240554829       16.8241679378
  N        18.8630103204        6.0121479037       16.7543152495
  N         8.0140574965        5.8791129550        5.8796851278
  N         3.6518696366        5.9619398718        5.9625588018
  N        14.4945039514        5.9601507581       16.8040319739
  N        16.7067944813        5.9808401769       18.9498359301
  N        16.7212199315       16.8129275616        8.1997295680
  N        16.6669664968       16.7346829287        3.8352750831
  N        16.6365138691        6.0848611845       14.5680948111
  N         5.7924735882        5.9180785673        3.7408062193
  N         5.9471463931       16.7925504329       14.6041692094
  N         5.8867964083       16.7908591169       18.9741727798
  N         5.8679013234        5.9148192949        8.1110861226
  C        11.3558913557       15.8060486222       15.8066023188
  H        11.3764542414       15.0308676026       15.0314693629
  C        11.2244704821        4.7888702467        4.7894010003
  H        11.2084301409        4.0140116451        4.0136012393
  C         0.4423457972       15.6871450057        4.9387453511
  H         0.4387794693       14.9080043172        4.1669997781
  C         0.4420974792        4.9389589359       15.6870776918
  H         0.4385961428        4.1672749899       14.9078763864
  C        11.2727378168        6.9222343235       15.6486881721
  H        11.2739891154        7.6738098835       14.8516111567
  C        11.2650383941       17.8438732554        4.8969811460
  H        11.2627769281       18.6481055513        4.1514943752
  C         0.4276173125        7.0355439722        4.9209932443
  H         0.4280661736        7.8100101612        4.1443628121
  C         0.5105311424       17.8518211196       15.7356842118
  H         0.5107305324       18.6273649234       14.9601571682
  C        11.2730207303       15.6488757391        6.9245215719
  H        11.2742882042       14.8519800122        7.6763510213
  C        11.2643889073        4.8959921376       17.8447870148
  H        11.2619564973        4.1508957239       18.6493649024
  C         0.5105049064       15.7356760500       17.8518114831
  H         0.5106842221       14.9601357364       18.6273428680
  C         0.4277680666        4.9204825773        7.0368494917
  H         0.4284927191        4.1441279296        7.8115490391
  C        11.2524141158        6.9007086606        6.9039248293
  H        11.2681895157        7.6756053074        7.6788553844
  C        11.3139199993       17.9193942959       17.9194938851
  H        11.2950440463       18.6948032438       18.6947507334
  C         0.4547747444        7.0417567072       17.8142813559
  H         0.4589227839        7.8123029564       18.5948094541
  C         0.4550274524       17.8140859482        7.0418095736
  H         0.4592274090       18.5945239010        7.8124470814
  C        15.6997890131       11.4417538177       15.7587499865
  H        14.9153407679       11.4530369708       14.9933676723
  C        15.6691802102        0.5195589751        4.8768321527
  H        14.9034067804        0.5115435693        4.0915107353
  C         4.7978790634       11.3420810670        4.8923932360
  H         4.0192866672       11.3450283314        4.1200032893
  C         4.8116402441        0.5466487510       15.7092234777
  H         4.0430034213        0.5361139860       14.9270223806
  C        15.5586516007       11.3125150018        7.0523104159
  H        14.7717918723       11.2747094289        7.8135242270
  C        15.6712676298        0.6148787605       17.8514879507
  H        14.9043627171        0.6185147353       18.6357704797
  C         4.8531828704       11.3805988764       17.8102210331
  H         4.0631483474       11.3831125510       18.5710663434
  C         4.7699500407        0.5187524416        7.0249236565
  H         4.0065230191        0.5197760266        7.8122606497
  C         7.0075501722       11.3753969084       15.7367591355
  H         7.7954679938       11.3739243357       14.9739925310
  C         6.8541399391        0.5153048374        4.8777302538
  H         7.6185903332        0.5144622530        4.0912611318
  C        17.6898351047       11.3666746703        4.9591068806
  H        18.4706651550       11.3930956089        4.1889672854
  C        17.7632333316        0.6103505445       15.7119499667
  H        18.5306191573        0.6059688217       14.9285905761
  C         6.9196189189       11.3313522253        6.9998686339
  H         7.6965409466       11.3290285471        7.7739616113
  C         6.9067304502        0.5710437220       17.8445383604
  H         7.6747990309        0.5820138579       18.6273953970
  C        17.8042398202       11.4141178411       17.8799155935
  H        18.5749679080       11.4018218544       18.6598536902
  C        17.7598927058        0.5415050343        7.0199038000
  H        18.5265810919        0.5491470046        7.8041544023
  C        15.6989134850       15.7587775989       11.4418977981
  H        14.9144666298       14.9933626010       11.4534611404
  C        15.6690498659        4.8765205937        0.5195083464
  H        14.9031481509        4.0913435295        0.5113956888
  C         4.8117114234       15.7090458445        0.5467425426
  H         4.0430528017       14.9268656827        0.5361813547
  C         4.7977240947        4.8920951609       11.3425440873
  H         4.0192405408        4.1196002633       11.3455213421
  C         7.0075627066       15.7365251107       11.3755736259
  H         7.7954338199       14.9737102326       11.3740880816
  C         6.8538158845        4.8776134469        0.5156438531
  H         7.6182357774        4.0911138916        0.5147174308
  C        17.7634081376       15.7121533102        0.6101441817
  H        18.5308645956       14.9288578579        0.6058149300
  C        17.6872995115        4.9613313854       11.3667834343
  H        18.4681613060        4.1911705960       11.3927631544
  C        15.5562600415        7.0546522777       11.3133655349
  H        14.7700375878        7.8164637324       11.2761957372
  C        15.6711344632       17.8514270095        0.6147910876
  H        14.9041324399       18.6356112397        0.6184459113
  C         4.7697402561        7.0249257299        0.5192312329
  H         4.0063653735        7.8123121390        0.5203005116
  C         4.8533208914       17.8101227045       11.3806923635
  H         4.0633238367       18.5710074022       11.3831837053
  C         6.9190891578        6.9999422901       11.3317257661
  H         7.6959051094        7.7741435949       11.3293104259
  C         6.9068464077       17.8442998410        0.5712055872
  H         7.6749277583       18.6271427370        0.5821982666
  C        17.7602636358        7.0192100892        0.5416034729
  H        18.5270959684        7.8033394932        0.5493677439
  C        17.8038287084       17.8795216769       11.4136368143
  H        18.5746918225       18.6593405529       11.4011013131
 Kr        12.1381958862       11.3269875326       11.3394778920
