     409
 i =     176, E =    -5136.7147404965
  N         2.8929945095        5.2013957498       16.0228781583
  C         1.5751832222        5.4707132434       16.2934523443
  N        13.7079733504        5.1979986495        5.1980694487
  C        12.3903237611        5.4685910435        5.4686244341
  N        19.5755159251       17.5781787500       16.0219077065
  C        20.8931920376       17.3076300661       16.2919153831
  N         8.7563278063       17.5776938799        5.2031612810
  C        10.0738319944       17.3075125791        5.4745076164
  N        19.5731767214        5.1994389132        6.7554663696
  C        20.8908289954        5.4691066341        6.4848347227
  N         8.7561736461        5.2032130861       17.5776286307
  C        10.0736932287        5.4745338841       17.3074787659
  N         2.8926824142       17.5781790817        6.7578352957
  C         1.5749835652       17.3087598300        6.4867282836
  N        13.7142756696       17.5763833993       17.5764663164
  C        12.3965229623       17.3064326463       17.3064702710
  N        15.8634439061        3.0480019212        5.2020964448
  C        16.1331455448        1.7303652605        5.4733036886
  N        15.8699232361       13.8678853620       16.0186798662
  C        16.1412463249       12.5501725076       16.2870835003
  N        15.8655983369       19.7321234992       17.5774440063
  C        16.1343132752       21.0498682761       17.3058929986
  N        15.8570364363        8.9116189698        6.7582745380
  C        16.1277434302       10.2287793541        6.4864357910
  N         6.6017561078       19.7317412979        5.2036509841
  C         6.3305529581       21.0493481994        5.4730467820
  N         6.6002152520        8.9132473627       16.0207276940
  C         6.3298163296       10.2307347231       16.2909491390
  N         6.6020936409        3.0492689249       17.5785434466
  C         6.3318878639        1.7315951994       17.3086730769
  N         6.6011431615       13.8678256347        6.7589016865
  C         6.3301736831       12.5503930733        6.4884598399
  N         5.0467989063       16.0225070932        3.0492358041
  C         5.3165321577       16.2929374255        1.7315007323
  N         5.0457185794        5.2025970459       13.8691911330
  C         5.3147418246        5.4725668159       12.5512416790
  N        17.4205479708       16.0202593872       19.7323101718
  C        17.1493639513       16.2893945213       21.0499858925
  N        17.4210520313        5.2099371827        8.9095557718
  C        17.1496908903        5.4770215525       10.2274125183
  N         5.0454857882        6.7596153153       19.7313808355
  C         5.3146832540        6.4887595279       21.0490330818
  N         5.0450634095       17.5776611948        8.9127837500
  C         5.3146629115       17.3071935789       10.2305226589
  N        17.4162120358        6.7611106790        3.0486879475
  C        17.1468290945        6.4908393971        1.7308795253
  N        17.4227307079       17.5773610653       13.8675901984
  C        17.1545971589       17.3050085248       12.5499817207
  N         5.0431837242        3.0481722127        6.7581380710
  C         5.3134956898        1.7304701983        6.4880818999
  N         5.0459400213       13.8696938795       17.5788320360
  C         5.3150519948       12.5519861495       17.3077970064
  N        17.4191713642       19.7317658990        6.7602678542
  C        17.1481933462       21.0493522012        6.4904272435
  N        17.4244407274        8.9112711966       17.5745702193
  C        17.1555153254       10.2288291391       17.3033608128
  N         5.0460585911       19.7324698541       16.0227723842
  C         5.3161338417       21.0501570328       16.2930191885
  N         5.0424945810        8.9122458866        5.2012139320
  C         5.3131914329       10.2298263618        5.4717932567
  N        17.4188228200        3.0490706044       16.0183939733
  C        17.1484819990        1.7313912823       16.2884600318
  N        17.4248607480       13.8657792537        5.2050480632
  C        17.1516097960       12.5484100371        5.4740420568
  N         2.8925961975       16.0227680738       17.5785744086
  C         1.5748006919       16.2922247502       17.3078629832
  N        13.7122525755       16.0232960931        6.7648184793
  C        12.3947315898       16.2930894488        6.4934016762
  N        19.5759874135       16.0232485839        5.1997197834
  C        20.8937009748       16.2938145309        5.4698265435
  N         8.7563724393       16.0219187124       16.0218574720
  C        10.0742617383       16.2916848466       16.2916554970
  N        19.5757682489        6.7561873693       17.5793576666
  C        20.8933827122        6.4858283230       17.3093134810
  N         8.7527843525        6.7572787837        6.7572232013
  C        10.0700391677        6.4859803518        6.4859565866
  N         2.8900299926        6.7570230376        5.2010367995
  C         1.5722915226        6.4857078637        5.4700008399
  N        13.7121561432        6.7647707166       16.0233503707
  C        12.3946171405        6.4933802551       16.2931121750
  N        15.8652753736        5.2020766871       19.7310185032
  C        16.1339695076        5.4730814664       21.0488667286
  N        15.8726226418       16.0144732778        8.9114133524
  C        16.1426953591       16.2848321913       10.2290471547
  N        15.8643400309       17.5755147185        3.0493648472
  C        16.1337299106       17.3048654474        1.7315325111
  N        15.8595550206        6.7512684331       13.8679227954
  C        16.1290781224        6.4828519671       12.5500077654
  N         6.5986238189        5.2019418826        3.0481120599
  C         6.3289836071        5.4723780060        1.7305000925
  N         6.6011988517       16.0225123298       13.8695592028
  C         6.3303561331       16.2918138126       12.5519015944
  N         6.6022293228       17.5788197481       19.7325797956
  C         6.3319301367       17.3087934911       21.0502069574
  N         6.5985937055        6.7572453109        8.9112831988
  C         6.3287882228        6.4876538129       10.2290448883
  N        19.5758937832       17.5792986987        6.7562470533
  C        20.8935107800       17.3093076017        6.4858323122
  N         8.7573619347       17.5782051318       17.5781268707
  C        10.0749251091       17.3074438500       17.3074079084
  N         2.8900664632        5.2010994395        6.7569496896
  C         1.5723126393        5.4700364723        6.4856682678
  N        13.7132062394        5.2061624040       17.5766619690
  C        12.3952701573        5.4761802283       17.3072525993
  N         2.8925628151       17.5786296020       16.0226915282
  C         1.5747775436       17.3078954823       16.2921840812
  N        13.7133718844       17.5766045467        5.2062050616
  C        12.3954164191       17.3072279416        5.4761997930
  N        19.5758587337        5.1996582587       16.0233164647
  C        20.8935717731        5.4698210920       16.2938233047
  N         8.7508746809        5.2011048250        5.2010337103
  C        10.0687829294        5.4703316611        5.4703014348
  N         6.6021968616       19.7326852554       17.5787218436
  C         6.3318507150       21.0503023160       17.3087091200
  N         6.5986065089        8.9113511369        6.7571842971
  C         6.3288200304       10.2291164293        6.4875933869
  N         6.5986249934        3.0482164307        5.2018238962
  C         6.3290190709        1.7305979194        5.4722682901
  N         6.6011846520       13.8696286502       16.0224470027
  C         6.3303237676       12.5519716108       16.2917472531
  N        15.8641683981        3.0492755017       17.5755896833
  C        16.1335838257        1.7314507435       17.3049365029
  N        15.8596535760       13.8678418808        6.7513476805
  C        16.1291546240       12.5499253792        6.4829256746
  N        15.8654177227       19.7309289990        5.2021630015
  C        16.1340736313       21.0487834403        5.4731746914
  N        15.8725137046        8.9113340406       16.0145554890
  C        16.1426103711       10.2289672155       16.2849032148
  N        17.4190586896        6.7601682187       19.7318297560
  C        17.1481012720        6.4903248318       21.0494210812
  N        17.4245554194       17.5744850052        8.9113640918
  C        17.1556015195       17.3032875708       10.2289195755
  N         5.0431663128        6.7582453184        3.0480918591
  C         5.3134532844        6.4881857178        1.7303867760
  N         5.0459466980       17.5788967101       13.8696045635
  C         5.3150842023       17.3078646422       12.5518991389
  N        17.4189597805       16.0182964112        3.0491306276
  C        17.1486120025       16.2883750850        1.7314581129
  N        17.4247501752        5.2049593154       13.8658789075
  C        17.1515271779        5.4739625242       12.5485045439
  N         5.0461043644       16.0228662034       19.7323974489
  C         5.3162180367       16.2931004458       21.0500764232
  N         5.0424876496        5.2012781962        8.9121516582
  C         5.3131579574        5.4718568722       10.2297378257
  N        17.4205121419       19.7322511240       16.0203538778
  C        17.1492874163       21.0499203288       16.2894759917
  N        17.4210611814        8.9094580787        5.2100045116
  C        17.1497241598       10.2273185222        5.4770927675
  N         5.0466331890        3.0493163737       16.0224292382
  C         5.3163870732        1.7315848323       16.2928634423
  N         5.0458399622       13.8692817615        5.2025221870
  C         5.3148297173       12.5513288626        5.4724997107
  N        17.4162269065        3.0486267776        6.7612081901
  C        17.1468690207        1.7308099837        6.4909383062
  N        17.4227217069       13.8674921634       17.5774165232
  C        17.1545618771       12.5498913442       17.3050693188
  N         5.0456152232       19.7314620886        6.7595335613
  C         5.3147830489       21.0491172965        6.4886667725
  N         5.0449519643        8.9128674886       17.5775802974
  C         5.3145805540       10.2306059044       17.3071207168
  N        19.5731421791        6.7554001271        5.1994915460
  C        20.8908079457        6.4848031787        5.4691326742
  N         8.7552069833        6.7605854689       16.0224888643
  C        10.0730287698        6.4912423355       16.2926653473
  N         2.8925451001        6.7579355580       17.5780805392
  C         1.5748492834        6.4868013274       17.3086913436
  N        13.7090371848        6.7537984855        6.7538599662
  C        12.3912223527        6.4842718288        6.4843020879
  N         2.8931329158       16.0229803679        5.2012879907
  C         1.5753202185       16.2935223062        5.4706373679
  N        13.7139954514       16.0203437958       16.0204080575
  C        12.3961471223       16.2907427525       16.2907730661
  N        19.5755502468       16.0218382921       17.5782254190
  C        20.8932145900       16.2918825007       17.3076539572
  N         8.7552959989       16.0225493811        6.7605375304
  C        10.0731377736       16.2926977814        6.4912177120
  N         6.6022522962       17.5786230246        3.0491643829
  C         6.3320303524       17.3087491945        1.7314974418
  N         6.6010481788        6.7589624153       13.8677544309
  C         6.3300975596        6.4885169562       12.5503211101
  N         6.6016331400        5.2037409942       19.7316376571
  C         6.3304568125        5.4731439911       21.0492508085
  N         6.6003051714       16.0207994394        8.9131792887
  C         6.3298895757       16.2910151286       10.2306659692
  N        15.8656324950       17.5773564641       19.7322129229
  C        16.1343935040       17.3058174590       21.0499504493
  N        15.8570215857        6.7582078490        8.9116984155
  C        16.1277106423        6.4863657707       10.2288592481
  N        15.8634388275        5.2019967366        3.0480955110
  C        16.1331066007        5.4732055717        1.7304490549
  N        15.8699435078       16.0186170048       13.8679606671
  C        16.1412855911       16.2870193340       12.5502492844
 Zn        14.5747174472       14.7259099709       14.7259582650
 Br        13.2651370483       13.4090720479       13.4091036947
 Zn        14.5697201734        3.9052323549        3.9053176283
 Br        13.2595786689        2.5888886571        2.5889847054
 Zn         3.7526748500       14.7281364516        3.9074825936
 Br         2.4385222106       13.4141993691        2.5927436120
 Zn         3.7524931240        3.9075689508       14.7280497641
 Br         2.4383623044        2.5928363582       13.4140902584
 Zn         7.8941582159        8.0533364416       14.7265687065
 Br         9.2149645448        9.3661225197       13.4171003988
 Zn         7.8951530450       18.8724533530        3.9087562937
 Br         9.2106372595       20.1870313514        2.5959553300
 Zn        18.7116897684        8.0523321324        3.9096586108
 Br        20.0248268263        9.3690686200        2.5966499906
 Zn        18.7146944360       18.8724765689       14.7268428816
 Br        20.0300376854       20.1863697927       13.4132084485
 Zn         7.8942238137       14.7266232966        8.0532945875
 Br         9.2150182565       13.4171460536        9.3660853729
 Zn         7.8950295749        3.9088196429       18.8723886516
 Br         9.2104600920        2.5959885223       20.1869835140
 Zn        18.7147210694       14.7267521674       18.8725015846
 Br        20.0300504289       13.4131017125       20.1863936921
 Zn        18.7117150695        3.9096183104        8.0524075205
 Br        20.0248410513        2.5966152391        9.3691630187
 Zn        14.5616504785        8.0508443053        8.0508976327
 Br        13.1935999444        9.3375061310        9.3375453392
 Zn        14.5722178055       18.8714379245       18.8715285108
 Br        13.2568327967       20.1851739309       20.1852823118
 Zn         3.7506060739        8.0529745757       18.8717804103
 Br         2.4358450337        9.3673104758       20.1854464373
 Zn         3.7507505031       18.8718542845        8.0529062879
 Br         2.4359740337       20.1855322597        9.3672189430
 Zn        14.5735224623       14.7245316729        8.0533152211
 Br        13.2776419867       13.3946154677        9.3708568923
 Zn        14.5708586167        3.9090558595       18.8701081770
 Br        13.2550034702        2.5943580111       20.1823036572
 Zn         3.7516810161       14.7284249946       18.8727519203
 Br         2.4373672082       13.4143384284       20.1870774866
 Zn         3.7482492952        3.9069850650        8.0520367995
 Br         2.4337376015        2.5926980371        9.3659861788
 Zn         7.8923196016        8.0516197912        8.0515757951
 Br         9.1930036764        9.3723716647        9.3723345354
 Zn         7.8957909456       18.8725931473       18.8724927590
 Br         9.2108475629       20.1865359011       20.1864192264
 Zn        18.7146243767        8.0519319792       18.8723060750
 Br        20.0284044344        9.3663596369       20.1870070719
 Zn        18.7147164621       18.8722388857        8.0520033359
 Br        20.0285079403       20.1869197448        9.3664499859
 Zn        14.5734179277        8.0532656430       14.7245795670
 Br        13.2775738680        9.3708196632       13.3946479336
 Zn        14.5710701577       18.8700514302        3.9091107326
 Br        13.2552139633       20.1822460158        2.5944003072
 Zn         3.7482182593        8.0521165004        3.9069395485
 Br         2.4337380991        9.3660934768        2.5926497947
 Zn         3.7516354184       18.8727898206       14.7283275809
 Br         2.4373581843       20.1871249139       13.4142137142
 Zn         7.8944906779       14.7277331622       14.7276814162
 Br         9.2098591652       13.4139020069       13.4138576209
 Zn         7.8916026330        3.9067050532        3.9066030188
 Br         9.2067915329        2.5928835399        2.5927877963
 Zn        18.7149690069       14.7257821543        3.9079034815
 Br        20.0310589555       13.4130038254        2.5939970649
 Zn        18.7148728680        3.9078218930       14.7258688338
 Br        20.0309356937        2.5938750209       13.4131132060
 Zn         5.8286918648        5.9841249815       16.8020841690
 Zn        16.6493226758       16.8014833516       16.8016444400
 Zn        16.6422187235        5.9814997219        5.9816670382
 Zn         5.8288362512       16.8022530104        5.9839841482
 Zn         5.8248001693        5.9819905963        5.9818161478
 Zn        16.6493099462       16.7992500814        5.9827738339
 Zn         5.8290278815       16.8038581503       16.8036976066
 Zn        16.6491704671        5.9826159291       16.7994371078
  N         3.6396804549        5.9802740546       16.8002441516
  N        14.4552521325        5.9757903315        5.9758752253
  N        18.8291006003       16.8002074344       16.8002781638
  N         8.0093566412       16.8001817833        5.9814093183
  N        18.8264274961        5.9778866616        5.9779572737
  N         8.0092322202        5.9814568445       16.8001176273
  N         3.6398177729       16.8003637057        5.9801580657
  N        14.4609637732       16.7983143055       16.7984076190
  N        16.6397752145        3.7951092248        5.9812552786
  N        16.6454739889       14.6145627571       16.7991675456
  N        16.6438550271       18.9854855118       16.7995576316
  N        16.6392959127        8.1638185546        5.9851930733
  N         5.8243176394       18.9849355936        5.9820085775
  N         5.8228784623        8.1664298723       16.7993958060
  N         5.8244915203        3.7961901457       16.8003079819
  N         5.8240742556       14.6154360636        5.9808239790
  N         5.8246569879       16.8003854905        3.7960962052
  N         5.8239501665        5.9808944972       14.6153505576
  N        16.6438696669       16.7994563241       18.9855645957
  N        16.6392963145        5.9851252443        8.1639111773
  N         5.8241812397        5.9820849405       18.9848396729
  N         5.8229949721       16.7994745563        8.1663497376
  N        16.6397734439        5.9811487746        3.7951907715
  N        16.6454780085       16.7991104535       14.6146530028
  N         5.8207730097        3.7950457014        5.9799413053
  N         5.8241404578       14.6165626714       16.8011246487
  N        16.6430577510       18.9845585629        5.9809735740
  N        16.6480295334        8.1646481986       16.7950036789
  N         5.8243171086       18.9859367618       16.8007469779
  N         5.8203676960        8.1651668602        5.9789846543
  N        16.6418538512        3.7959784473       16.7973551426
  N        16.6434360680       14.6136229116        5.9783402405
  N         3.6395093413       16.8010993172       16.8010160979
  N        14.4597719514       16.7997656361        5.9856507989
  N        18.8294777993       16.8009547657        5.9780832234
  N         8.0103511692       16.8003897148       16.8002985792
  N        18.8293451720        5.9779900380       16.8010478210
  N         8.0052101120        5.9797303366        5.9796463634
  N         3.6369313784        5.9797377493        5.9796615229
  N        14.4596441739        5.9856049564       16.7998252276
  N        16.6429196197        5.9808871652       18.9846382698
  N        16.6481546283       16.7949140157        8.1647397262
  N        16.6420079731       16.7972711644        3.7960544824
  N        16.6433204566        5.9782500567       14.6137204060
  N         5.8207786869        5.9800584138        3.7949492291
  N         5.8241369649       16.8011934818       14.6164793694
  N         5.8243392041       16.8008587352       18.9858436780
  N         5.8203674724        5.9790477634        8.1650808599
  C        11.2348751680       15.7416382985       15.7416386638
  H        11.2339341407       14.9661349290       14.9661354313
  C        11.2288636812        4.9197854245        4.9197866692
  H        11.2274045916        4.1442934921        4.1442941498
  C         0.4146236416       15.7443894688        4.9202730961
  H         0.4147257053       14.9691530382        4.1444926816
  C         0.4144923788        4.9203101488       15.7443526299
  H         0.4145929281        4.1445297164       14.9691153611
  C        11.2335123289        7.0426373183       15.7439626566
  H        11.2322687040        7.8188845220       14.9692139030
  C        11.2351039605       17.8563112519        4.9250758814
  H        11.2357911611       18.6308697727        4.1485911864
  C         0.4115699164        7.0347036770        4.9197254529
  H         0.4116276858        7.8103670088        4.1443764050
  C         0.4139989543       17.8572562034       15.7423112423
  H         0.4139361017       18.6327964687       14.9668275541
  C        11.2335952311       15.7439694284        7.0426342170
  H        11.2323191729       14.9692203605        7.8188819040
  C        11.2349289546        4.9250778892       17.8563092670
  H        11.2355853113        4.1485942307       18.6308685864
  C         0.4140515277       15.7423154005       17.8572512473
  H         0.4140381781       14.9668323318       18.6327906502
  C         0.4116242057        4.9197305737        7.0346999726
  H         0.4117305182        4.1443814656        7.8103639325
  C        11.2311896569        7.0347281820        7.0347323785
  H        11.2337958879        7.8102432451        7.8102480317
  C        11.2361587338       17.8565176370       17.8565186132
  H        11.2368362536       18.6320335073       18.6320351866
  C         0.4140996507        7.0360425149       17.8585401521
  H         0.4139848523        7.8119116215       18.6336945357
  C         0.4142306830       17.8585739353        7.0360020716
  H         0.4141200987       18.6337300418        7.8118713807
  C        15.5942378269       11.3897415369       15.7341983319
  H        14.8212162024       11.3899956601       14.9562010842
  C        15.5848226365        0.5694130535        4.9227587215
  H        14.8106918261        0.5692958701        4.1458591281
  C         4.7644286670       11.3911062951        4.9223967852
  H         3.9891364706       11.3919715916        4.1466637863
  C         4.7665958198        0.5709250273       15.7432580516
  H         3.9911953122        0.5709477608       14.9676314593
  C        15.5736866456       11.3903107666        7.0292344079
  H        14.7907093133       11.3929439017        7.7970235093
  C        15.5845471320        0.5707236959       17.8552870354
  H        14.8096905310        0.5708260457       18.6314617506
  C         4.7652652330       11.3912312902       17.8572904251
  H         3.9902113769       11.3911551442       18.6332713482
  C         4.7644104661        0.5696698141        7.0380180620
  H         3.9889779297        0.5694083416        7.8136041967
  C         6.8794770039       11.3914438387       15.7413690254
  H         7.6549945531       11.3915405078       14.9658765644
  C         6.8795117214        0.5701247630        4.9229911629
  H         7.6553145950        0.5703987047        4.1477626801
  C        17.7037137893       11.3868157499        4.9291612713
  H        18.4839212705       11.3848703609        4.1583702524
  C        17.6979774824        0.5705962243       15.7387754549
  H        18.4732187274        0.5705073132       14.9629827225
  C         6.8789955869       11.3892983116        7.0378766215
  H         7.6542495035       11.3881687151        7.8136391167
  C         6.8815272595        0.5709551816       17.8584181621
  H         7.6571199447        0.5708730953       18.6338510979
  C        17.7037233100       11.3892267846       17.8549789897
  H        18.4774553161       11.3888699803       18.6322648891
  C        17.6960848027        0.5702669907        7.0414178753
  H        18.4703841057        0.5704883623        7.8181314430
  C        15.5943008803       15.7341309398       11.3898116659
  H        14.8212806120       14.9561320808       11.3900519002
  C        15.5847492340        4.9226649220        0.5695149234
  H        14.8106158118        4.1457680660        0.5694171974
  C         4.7667134718       15.7433310583        0.5708563347
  H         3.9913129151       14.9677054900        0.5709000301
  C         4.7643634886        4.9224666612       11.3910064979
  H         3.9890622084        4.1467417835       11.3918535985
  C         6.8795286522       15.7414327145       11.3913822390
  H         7.6550447418       14.9659388921       11.3914943349
  C         6.8794483133        4.9230969490        0.5700139110
  H         7.6552533243        4.1478699301        0.5702705947
  C        17.6980791060       15.7386909095        0.5706488255
  H        18.4733136396       14.9628917440        0.5705368507
  C        17.7036527582        4.9290826919       11.3869190778
  H        18.4838537488        4.1582848992       11.3849884141
  C        15.5736335804        7.0291636882       11.3903825885
  H        14.7906574962        7.7969527107       11.3930014188
  C        15.5846686963       17.8552220048        0.5708235878
  H        14.8098172518       18.6314036214        0.5709461982
  C         4.7643391471        7.0381154816        0.5695964393
  H         3.9889082785        7.8137023358        0.5693541503
  C         4.7653251668       17.8573647011       11.3911376704
  H         3.9902775091       18.6333522796       11.3910443218
  C         6.8789444069        7.0379320840       11.3892366059
  H         7.6542005599        7.8136919686       11.3881241274
  C         6.8816419775       17.8584969801        0.5708424231
  H         7.6572353614       18.6339298174        0.5707416690
  C        17.6960227673        7.0413126578        0.5703227432
  H        18.4703271465        7.8180191228        0.5705214358
  C        17.7037840143       17.8549111740       11.3893269899
  H        18.4775200547       18.6321945589       11.3889839538
 Kr        16.5985661223       10.6905526702       10.6906323661
