     409
 i =     176, E =    -5136.7079509515
  N         2.9318137284        5.1980331938       15.9894209360
  C         1.6149235595        5.4739737531       16.2571157935
  N        13.7374009421        5.1248061423        5.1248058649
  C        12.4170525337        5.3923741782        5.3925108538
  N        19.6698239809       17.5937553336       16.0382338788
  C        20.9869043342       17.3139555428       16.2983480540
  N         8.8004353586       17.5601797604        5.1764183634
  C        10.1190659954       17.2842499483        5.4382556574
  N        19.6038467284        5.2004248669        6.7564218679
  C        20.9214060783        5.4712040612        6.4871696535
  N         8.8002165152        5.1763046676       17.5603086028
  C        10.1188591021        5.4380854018       17.2843526273
  N         2.9365025801       17.5418546989        6.7570523269
  C         1.6185425221       17.2725872321        6.4898443456
  N        13.8042626008       17.6165753041       17.6166131877
  C        12.4868048556       17.3438748863       17.3439235719
  N        15.9338711748        3.0158137284        5.1605760901
  C        16.2083273806        1.7014898695        5.4373528855
  N        15.9672396960       13.8948026390       16.0468204807
  C        16.2340128005       12.5745385752       16.3086547317
  N        15.9710531926       19.7550271412       17.5988025912
  C        16.2262285061       21.0718376585       17.3117155495
  N        15.8627546214        8.8700988046        6.7182714749
  C        16.1384615525       10.1919446716        6.4736718861
  N         6.6242345298       19.6985787404        5.1892995179
  C         6.3446370501       21.0146869556        5.4522430319
  N         6.6789234907        8.8944956826       16.0085728765
  C         6.4203588431       10.2154013531       16.2805158135
  N         6.6349769081        3.0415458831       17.5604990400
  C         6.3708079193        1.7230292624       17.2931851406
  N         6.6319617723       13.8353868422        6.7379708845
  C         6.3655767180       12.5170726228        6.4637966113
  N         5.0831435246       16.0008798152        3.0322804740
  C         5.3588549037       16.2739556810        1.7161700364
  N         5.0785772725        5.1797955944       13.8368862355
  C         5.3503469651        5.4472758548       12.5188483741
  N        17.5192076773       16.0347099190       19.7534185532
  C        17.2363429296       16.2902212059       21.0714134390
  N        17.4312081972        5.1774327553        8.8892722906
  C        17.1610729292        5.4660213887       10.2031041563
  N         5.0795715242        6.7561596107       19.6961532304
  C         5.3369580447        6.4759021259       21.0143683474
  N         5.1029363223       17.5431546545        8.9044314773
  C         5.3912721015       17.2825780566       10.2200537221
  N        17.4767816709        6.7290206445        3.0286175191
  C        17.2160289062        6.4607163221        1.7090698094
  N        17.5232936544       17.6014878781       13.8824472970
  C        17.2491918996       17.3245386621       12.5664700417
  N         5.0531768144        3.0144485593        6.7242735592
  C         5.3235225088        1.6955726792        6.4599027350
  N         5.1390537837       13.8576706677       17.5631698196
  C         5.4087403192       12.5408232359       17.2914585702
  N        17.4870629069       19.7134963212        6.7510960332
  C        17.2205252638       21.0293572275        6.4714991610
  N        17.4904977528        8.9245978425       17.5872999219
  C        17.2317870589       10.2440171784       17.3159855957
  N         5.1178276752       19.7158032635       16.0089672823
  C         5.3759036921       21.0353907143       16.2790711453
  N         5.0862190947        8.8805227189        5.1632875853
  C         5.3558007712       10.1970548149        5.4387104811
  N        17.4621952763        3.0710904180       15.9780241704
  C        17.2088480744        1.7525705919       16.2610212700
  N        17.4474232464       13.8418219731        5.2482604471
  C        17.1687404280       12.5236220084        5.5035201691
  N         2.9829178233       16.0021030151       17.5571477242
  C         1.6659974863       16.2804893900       17.2960255897
  N        13.7598093540       16.0040974045        6.7319446670
  C        12.4415092890       16.2611669766        6.4489199084
  N        19.6151485320       15.9842661112        5.2227791218
  C        20.9341856285       16.2549084090        5.4850268588
  N         8.8560293477       16.0428824854       16.0429451701
  C        10.1715120056       16.3190436809       16.3191124248
  N        19.6227138050        6.7687917208       17.5498158789
  C        20.9383641236        6.4956921328       17.2754380432
  N         8.7816500444        6.6889326389        6.6891935020
  C        10.0968762536        6.4136476771        6.4139402318
  N         2.9194351364        6.7473576150        5.1918073242
  C         1.6020393205        6.4827306083        5.4672371210
  N        13.7596062792        6.7317999901       16.0042122672
  C        12.4413116732        6.4487204029       16.2612482553
  N        15.9392045771        5.1883797647       19.7056957923
  C        16.2108510972        5.4502304659       21.0234289710
  N        15.9354920791       16.0309125291        8.9338481868
  C        16.2165942523       16.2993897675       10.2514070774
  N        15.9174605694       17.5435132259        3.0672609613
  C        16.2001459385       17.2830390273        1.7512883492
  N        15.8892184724        6.8028766719       13.8347850952
  C        16.1495204071        6.5170110715       12.5166542200
  N         6.5955962139        5.1559068276        3.0092755367
  C         6.3302449998        5.4356188798        1.6935276612
  N         6.7131498786       16.0260480880       13.8595433794
  C         6.4371911151       16.2883965899       12.5399128659
  N         6.6624349922       17.5751697987       19.7278970674
  C         6.3852082053       17.3009818504       21.0431500001
  N         6.6459195489        6.7143586059        8.8741275823
  C         6.3733892527        6.4524356016       10.1939025467
  N        19.6228974909       17.5498430397        6.7688442120
  C        20.9385515187       17.2754863877        6.4957448383
  N         8.8416427126       17.5982779856       17.5982853207
  C        10.1629515667       17.3347853769       17.3348177137
  N         2.9194696939        5.1917205381        6.7474938690
  C         1.6020573710        5.4671007778        6.4829134497
  N        13.7593219431        5.2014517984       17.5837516097
  C        12.4414032850        5.4520413815       17.2956660074
  N         2.9829169414       17.5571168117       16.0021112071
  C         1.6660003845       17.2960146051       16.2804902137
  N        13.7595335667       17.5835793276        5.2015596928
  C        12.4416055100       17.2955461174        5.4522036379
  N        19.6149251844        5.2227960431       15.9841648730
  C        20.9339821032        5.4850132597       16.2548227142
  N         8.7719568079        5.1332657149        5.1333402177
  C        10.0924984387        5.3980081482        5.3981784927
  N         6.6624214246       19.7278829317       17.5751652084
  C         6.3851595929       21.0431297533       17.3009770956
  N         6.6460253095        8.8740554300        6.7143784207
  C         6.3735055475       10.1938310671        6.4524539544
  N         6.5956211924        3.0092352454        5.1559031747
  C         6.3303072652        1.6934744640        5.4356046664
  N         6.7131228743       13.8595071749       16.0260951775
  C         6.4371496240       12.5398807857       16.2884419050
  N        15.9172612317        3.0672256875       17.5436117436
  C        16.2000083762        1.7512658396       17.2831204916
  N        15.8896685424       13.8347371895        6.8025821874
  C        16.1499857320       12.5166192304        6.5166540468
  N        15.9393402184       19.7056340456        5.1884327369
  C        16.2109125166       21.0233834966        5.4503204009
  N        15.9354286104        8.9338469070       16.0310500836
  C        16.2165996507       10.2514033538       16.2994697448
  N        17.4869933055        6.7509873170       19.7135160173
  C        17.2205079688        6.4713640163       21.0293755686
  N        17.4905631738       17.5871613704        8.9246056783
  C        17.2317913938       17.3158972432       10.2440223103
  N         5.0531479146        6.7242757771        3.0145428169
  C         5.3234646720        6.4599217689        1.6956555378
  N         5.1390884767       17.5631265045       13.8576780988
  C         5.4087893586       17.2914213352       12.5408392937
  N        17.4624863995       15.9780188712        3.0710550531
  C        17.2090328885       16.2609908043        1.7525521181
  N        17.4469072455        5.2484922877       13.8418128347
  C        17.1682373773        5.5038358282       12.5236281875
  N         5.1178298592       16.0089824227       19.7158412851
  C         5.3759426109       16.2790856503       21.0354320502
  N         5.0862065314        5.1631877938        8.8805870774
  C         5.3557333594        5.4386460138       10.1971152642
  N        17.5191692803       19.7534344453       16.0347280164
  C        17.2362725707       21.0714274257       16.2902541354
  N        17.4317244674        8.8892371035        5.1770002421
  C        17.1615961160       10.2030802242        5.4655904120
  N         5.0829946003        3.0322402802       16.0009077357
  C         5.3587486308        1.7161260593       16.2739671419
  N         5.0786880443       13.8368367606        5.1798452912
  C         5.3504470630       12.5187963049        5.4473116881
  N        17.4765529436        3.0286169351        6.7293086564
  C        17.2159138883        1.7090623723        6.4609349685
  N        17.5233043358       13.8824545409       17.6014882617
  C        17.2492208682       12.5664691122       17.3245571767
  N         5.0797483664       19.6960705737        6.7561367497
  C         5.3371022541       21.0142862344        6.4758620686
  N         5.1028157732        8.9044234040       17.5431922951
  C         5.3911805301       10.2200376573       17.2826217332
  N        19.6038835791        6.7560729142        5.2005888165
  C        20.9214146646        6.4868556505        5.4714183020
  N         8.8021341696        6.6971986645       15.9718611097
  C        10.1196659656        6.4306766550       16.2464516566
  N         2.9363276164        6.7570259744       17.5418550569
  C         1.6183694724        6.4898173678       17.2725720078
  N        13.7319073136        6.6798033965        6.6798787806
  C        12.4161133613        6.4080057565        6.4082194182
  N         2.9319758873       15.9894403180        5.1980464684
  C         1.6150972019       16.2571446619        5.4739809452
  N        13.8119413411       16.0615869786       16.0616746828
  C        12.4928857452       16.3282233700       16.3283059216
  N        19.6698314375       16.0382235360       17.5937588926
  C        20.9869041810       16.2983380155       17.3139643137
  N         8.8023161937       15.9718019350        6.6973865436
  C        10.1198568107       16.2463974939        6.4308963871
  N         6.6351791533       17.5604293028        3.0415690704
  C         6.3709392445       17.2931513166        1.7230543609
  N         6.6318076134        6.7379615830       13.8354539831
  C         6.3654460508        6.4637910434       12.5171402057
  N         6.6240029813        5.1892978359       19.6986413338
  C         6.3444689915        5.4522656518       21.0147509262
  N         6.6790065191       16.0084867153        8.8945374697
  C         6.4204291179       16.2804488591       10.2154367356
  N        15.9710556251       17.5987435376       19.7550627051
  C        16.2262724386       17.3116524019       21.0718627894
  N        15.8623451347        6.7188179770        8.8700956287
  C        16.1379971473        6.4741636019       10.1919556253
  N        15.9339558879        5.1604313888        3.0158560173
  C        16.2083653371        5.4372111256        1.7015233987
  N        15.9671907035       16.0468476623       13.8948203233
  C        16.2339576705       16.3086561496       12.5745507399
 Zn        14.6733108897       14.7726632207       14.7726765368
 Br        13.3331545142       13.4760038023       13.4756889757
 Zn        14.6431390648        3.8471006223        3.8471433266
 Br        13.3569920202        2.5193214451        2.5194221647
 Zn         3.7883573273       14.7082431761        3.8919109758
 Br         2.4664833463       13.4055097845        2.5724446282
 Zn         3.7882483615        3.8918814205       14.7082610944
 Br         2.4663523792        2.5724353851       13.4055291152
 Zn         7.9391553032        8.0068522738       14.7067159243
 Br         9.2282704437        9.3162987283       13.3713361994
 Zn         7.9282754550       18.8546487757        3.8982159811
 Br         9.2397267519       20.1748958816        2.5869022649
 Zn        18.7455765125        8.0402793879        3.8972813471
 Br        20.0633565298        9.3570550452        2.5899131343
 Zn        18.8170564629       18.8900235005       14.7469335892
 Br        20.1281702408       20.2095613744       13.4334115952
 Zn         7.9392691062       14.7066149902        8.0069308444
 Br         9.2283904004       13.3712654254        9.3164256772
 Zn         7.9279223149        3.8981668167       18.8548424529
 Br         9.2394811596        2.5868565599       20.1750012063
 Zn        18.8170803073       14.7469073133       18.8900184659
 Br        20.1281835876       13.4333413213       20.2095258496
 Zn        18.7449487124        3.8973983440        8.0407897212
 Br        20.0628214863        2.5901828406        9.3576409775
 Zn        14.5666857430        7.9736785922        7.9729515019
 Br        13.2401733193        9.2788999812        9.2761890649
 Zn        14.6798115831       18.9007075268       18.9007816085
 Br        13.3736248193       20.2194876615       20.2195573811
 Zn         3.7960377683        8.0556072927       18.8284795626
 Br         2.4873495646        9.3734780255       20.1446530614
 Zn         3.7961876430       18.8284713123        8.0556114885
 Br         2.4874715263       20.1446406261        9.3734494675
 Zn        14.6185023867       14.7625871515        8.0695135375
 Br        13.2276413729       13.6354699056        9.4663512792
 Zn        14.6320926866        3.9038555696       18.8576373720
 Br        13.3240547393        2.5813214506       20.1688248803
 Zn         3.8390612002       14.7107048725       18.8491276140
 Br         2.5204598970       13.3956471835       20.1593880587
 Zn         3.7793632994        3.8855543391        8.0249081225
 Br         2.4628173630        2.5774042738        9.3453993544
 Zn         7.9378045837        7.9883107317        7.9884372478
 Br         9.2614568360        9.2933771114        9.2935885287
 Zn         7.9526809288       18.8803994779       18.8803935900
 Br         9.2484327197       20.2042923499       20.2042692600
 Zn        18.7787987468        8.0513174853       18.8690465088
 Br        20.1073305814        9.3428431409       20.1913689991
 Zn        18.7788508464       18.8689912779        8.0513962797
 Br        20.1073448414       20.1913142738        9.3429593255
 Zn        14.6182075360        8.0696425598       14.7628825554
 Br        13.2268219634        9.4670296758       13.6371212850
 Zn        14.6323191649       18.8574231982        3.9039167579
 Br        13.3241656564       20.1686271591        2.5814815504
 Zn         3.7793229321        8.0248478311        3.8856817566
 Br         2.4628496090        9.3453985966        2.5775278766
 Zn         3.8390636711       18.8490640837       14.7106922409
 Br         2.5204859384       20.1593424606       13.3956160415
 Zn         8.0022227232       14.7510917837       14.7511587506
 Br         9.3084293639       13.4368310867       13.4368985408
 Zn         7.8881360192        3.8495268678        3.8495243257
 Br         9.1922383673        2.5305468972        2.5305324799
 Zn        18.7420967353       14.6853486023        3.9465920075
 Br        20.0475654042       13.3558288250        2.6375229455
 Zn        18.7415183356        3.9467090182       14.6852355025
 Br        20.0471020106        2.6377548871       13.3556898778
 Zn         5.8601173745        5.9618192013       16.7696012963
 Zn        16.7470045923       16.8271853885       16.8271938086
 Zn        16.6706442990        5.9439395838        5.9439001318
 Zn         5.8603349199       16.7695592516        5.9618401229
 Zn         5.8451693072        5.9434346522        5.9434917282
 Zn        16.6908183718       16.7802069697        6.0018561097
 Zn         5.9107445507       16.7892645533       16.7892835425
 Zn        16.6904376999        6.0018626431       16.7803141149
  N         3.6805955744        5.9751315965       16.7660758196
  N        14.4816489838        5.9042849751        5.9042385806
  N        18.9233985844       16.8210605446       16.8210788828
  N         8.0541983206       16.7669946902        5.9393893573
  N        18.8570255119        5.9771544874        5.9774009814
  N         8.0540043827        5.9392684780       16.7670954425
  N         3.6807666987       16.7660621239        5.9751354997
  N        14.5551657541       16.8404274031       16.8404858062
  N        16.7011118912        3.7687085143        5.9428235238
  N        16.7465345925       14.6355873740       16.8281221660
  N        16.7523110944       19.0079315500       16.8248308424
  N        16.6458289496        8.1329039491        5.9369987068
  N         5.8580264232       18.9506261345        5.9770238052
  N         5.8825330643        8.1527624930       16.7722511355
  N         5.8562497645        3.7834047443       16.7793983957
  N         5.8546853179       14.5825782999        5.9604983922
  N         5.8564416008       16.7793209995        3.7834355600
  N         5.8545619905        5.9604817765       14.5826364923
  N        16.7523215309       16.8247910924       19.0079388211
  N        16.6453971106        5.9374788942        8.1329204520
  N         5.8577967862        5.9770232703       18.9506963947
  N         5.8826456737       16.7721888204        8.1527846823
  N        16.7013074435        5.9425848574        3.7687261861
  N        16.7465033509       16.8281342841       14.6355941082
  N         5.8236675295        3.7587430964        5.9365476150
  N         5.9273144873       14.6050095004       16.7970635939
  N        16.7112936014       18.9624885782        5.9749442959
  N        16.7070540729        8.1831492576       16.8104839833
  N         5.8950940360       18.9750135441       16.7927120340
  N         5.8663515186        8.1305645853        5.9354302034
  N        16.6822976557        3.8161801277       16.7556814338
  N        16.6736654533       14.5851069287        6.0321481850
  N         3.7298097102       16.7752340166       16.7752262008
  N        14.5060117358       16.8024244041        5.9762275193
  N        18.8724433214       16.7679950942        5.9987554540
  N         8.1021049868       16.8168985411       16.8169250821
  N        18.8722371814        5.9987506948       16.7679438482
  N         8.0302471606        5.9137506621        5.9138780204
  N         3.6659898268        5.9662950515        5.9664088592
  N        14.5057997827        5.9761247907       16.8026085448
  N        16.7111552733        5.9748773444       18.9625293007
  N        16.7071466882       16.8103071910        8.1831536573
  N        16.6825890547       16.7556307480        3.8161824849
  N        16.6731922538        6.0323619045       14.5851364105
  N         5.8236646443        5.9365344553        3.7588120181
  N         5.9273183151       16.7970345101       14.6050290195
  N         5.8951013377       16.7927385301       18.9750381672
  N         5.8663040320        5.9353517357        8.1306322029
  C        11.3363956571       15.7742912538       15.7743885037
  H        11.3441434854       14.9988294225       14.9989454893
  C        11.2522702356        4.8454450394        4.8455580848
  H        11.2470518734        4.0699553016        4.0699662263
  C         0.4525704958       15.7046146432        4.9310017374
  H         0.4500410467       14.9273269929        4.1572864155
  C         0.4523878819        4.9310043021       15.7045441448
  H         0.4498980738        4.1573093731       14.9272452225
  C        11.2797150796        6.9736934173       15.6895111400
  H        11.2797340140        7.7344883252       14.8997856266
  C        11.2807329186       17.8493182688        4.9056219539
  H        11.2814637944       18.6416625980        4.1473768175
  C         0.4417615334        7.0353198737        4.9201326735
  H         0.4421010203        7.8102035831        4.1439407921
  C         0.5064078344       17.8550305836       15.7389978739
  H         0.5065196958       18.6306014928       14.9635007870
  C        11.2799160019       15.6894791654        6.9739457121
  H        11.2799150180       14.8997685984        7.7347570885
  C        11.2805343639        4.9054734488       17.8494433518
  H        11.2812588251        4.1472674554       18.6418254626
  C         0.5063855396       15.7389923814       17.8550444476
  H         0.5065240647       14.9634961708       18.6306168760
  C         0.4418161898        4.9200009335        7.0355986930
  H         0.4422348215        4.1438610985        7.8105297770
  C        11.2590292042        6.9601525242        6.9604926420
  H        11.2634385132        7.7355616249        7.7359361789
  C        11.3205868720       17.8889150978       17.8889377258
  H        11.3139352278       18.6644387301       18.6644333577
  C         0.4604797404        7.0411090792       17.8254013130
  H         0.4632705778        7.8139618525       18.6035756146
  C         0.4606631573       17.8254184015        7.0411631937
  H         0.4634740747       18.6035748364        7.8140377362
  C        15.6780003487       11.4192638625       15.7532172219
  H        14.9005215573       11.4280330554       14.9800173056
  C        15.6643427410        0.5386562837        4.8886593354
  H        14.8942489125        0.5330777593        4.1076779045
  C         4.8030572743       11.3588172075        4.8941005378
  H         4.0266894553       11.3593437244        4.1194462087
  C         4.8197876029        0.5506724044       15.7241760827
  H         4.0479138546        0.5427997001       14.9450838963
  C        15.5919824362       11.3472751338        7.0415294468
  H        14.8123413972       11.3303300482        7.8122474826
  C        15.6665450194        0.5921065966       17.8505801283
  H        14.8959866253        0.5937808416       18.6311143550
  C         4.8439981377       11.3824455512       17.8298503206
  H         4.0582937600       11.3856823906       18.5950611680
  C         4.7844985519        0.5355802832        7.0221287537
  H         4.0159765996        0.5364686145        7.8045821845
  C         6.9862106609       11.3755251640       15.7432263204
  H         7.7706031903       11.3725190686       14.9767985649
  C         6.8817213569        0.5335091283        4.8883642943
  H         7.6505020005        0.5325405858        4.1061728131
  C        17.7172328463       11.3703004408        4.9381400654
  H        18.4965753334       11.3824832687        4.1663877475
  C        17.7687626947        0.5916293062       15.7221352506
  H        18.5396541574        0.5907186815       14.9421156675
  C         6.9191009817       11.3545044799        7.0074431080
  H         7.6949524678       11.3541156723        7.7825427129
  C         6.9246376979        0.5681356094       17.8502297933
  H         7.6959462010        0.5760434233       18.6299171400
  C        17.7903433559       11.3993435504       17.8695036483
  H        18.5641627894       11.3901337837       18.6467073295
  C        17.7656595950        0.5528069808        7.0192650309
  H        18.5361069155        0.5578414051        7.7998370670
  C        15.6779502138       15.7531997882       11.4192748324
  H        14.9004678393       14.9799988048       11.4280715713
  C        15.6642966792        4.8885718417        0.5387064644
  H        14.8941667504        4.1076269592        0.5331403776
  C         4.8198499737       15.7241896121        0.5507385426
  H         4.0479657063       14.9451047998        0.5428612037
  C         4.8029863918        4.8940319993       11.3588592345
  H         4.0266412128        4.1193577539       11.3594004708
  C         6.9862603212       15.7431629657       11.3755635815
  H         7.7706447685       14.9767260226       11.3725749382
  C         6.8816058518        4.8883767102        0.5335482432
  H         7.6503779143        4.1061771032        0.5325351917
  C        17.7689055217       15.7221158785        0.5915868808
  H        18.5398154437       14.9421202664        0.5906466963
  C        17.7167048410        4.9384950100       11.3702912205
  H        18.4960341217        4.1667231057       11.3824254782
  C        15.5915419073        7.0419831446       11.3473201343
  H        14.8119588555        7.8127520152       11.3304439816
  C        15.6666068532       17.8504916517        0.5921552953
  H        14.8960246873       18.6310029998        0.5938651902
  C         4.7844066653        7.0221725106        0.5356784433
  H         4.0158978912        7.8046380674        0.5366101719
  C         4.8440783381       17.8298168354       11.3824588110
  H         4.0583841925       18.5950384227       11.3856664754
  C         6.9189561781        7.0074540993       11.3545878071
  H         7.6947852075        7.7825771929       11.3541845918
  C         6.9247304197       17.8502104319        0.5681342945
  H         7.6960462409       18.6298891866        0.5760359829
  C        17.7657383837        7.0190665678        0.5528067625
  H        18.5362188209        7.7996055339        0.5578315983
  C        17.7903332917       17.8694434677       11.3993401857
  H        18.5641713258       18.6466300425       11.3901111306
 Kr        11.3295098666       11.3682816232       11.3686978275
