     409
 i =     176, E =    -5136.7125431070
  N         3.0119475081        5.2043837268       16.0283856582
  C         1.6935260251        5.4739654222       16.2963833066
  N        13.8199667788        5.2024256881        5.2024294671
  C        12.5028208511        5.4742423511        5.4742458308
  N        19.6990934310       17.5767799861       16.0202417885
  C        21.0169961873       17.3087133988       16.2929032871
  N         8.8728982980       17.5816110647        5.2079479318
  C        10.1907830435       17.3087190684        5.4753917293
  N        19.6845445894        5.1998793983        6.7560518309
  C        21.0021173338        5.4726638147        6.4883855737
  N         8.8729033887        5.2079462791       17.5816090933
  C        10.1907653273        5.4753909259       17.3087144257
  N         3.0086657163       17.5826688334        6.7623206760
  C         1.6913125721       17.3112717164        6.4905400270
  N        13.8389201814       17.5767159599       17.5767167557
  C        12.5207182918       17.3073917332       17.3073907532
  N        15.9726254353        3.0461665012        5.1997025965
  C        16.2441420520        1.7285725157        5.4696344437
  N        15.9906979905       13.8657938673       16.0188831680
  C        16.2591691596       12.5480750859       16.2895379876
  N        15.9918657708       19.7293591713       17.5755655284
  C        16.2593555719       21.0470935987       17.3043195681
  N        15.9784915808        8.9098527131        6.7561412194
  C        16.2491437204       10.2273274161        6.4856083828
  N         6.7177481512       19.7394650096        5.2092928971
  C         6.4449900965       21.0568317194        5.4784291240
  N         6.7197423345        8.9166583930       16.0268170299
  C         6.4498676721       10.2343698474       16.2960747923
  N         6.7202954972        3.0548836379       17.5859890478
  C         6.4525824735        1.7368904001       17.3152063982
  N         6.7112343773       13.8729491620        6.7685976858
  C         6.4368557217       12.5557137833        6.5014785710
  N         5.1673581787       16.0281637918        3.0534657144
  C         5.4383287503       16.2982524788        1.7359993267
  N         5.1592193477        5.2098890702       13.8748863054
  C         5.4233876591        5.4837794172       12.5568848474
  N        17.5447619790       16.0175532644       19.7304879816
  C        17.2735530130       16.2872924000       21.0479290338
  N        17.5322071996        5.1984404169        8.9087343906
  C        17.2636215425        5.4687923685       10.2265160649
  N         5.1621369963        6.7653443735       19.7376565336
  C         5.4296067010        6.4944030347       21.0556197980
  N         5.1640399366       17.5829475943        8.9177726446
  C         5.4345644141       17.3121794113       10.2352001336
  N        17.5295353524        6.7548287156        3.0471673649
  C        17.2602371443        6.4849440311        1.7294610850
  N        17.5449031370       17.5758443059       13.8649684377
  C        17.2739079562       17.3060759787       12.5475029536
  N         5.1554136861        3.0546775499        6.7654009833
  C         5.4260697021        1.7370572321        6.4946191044
  N         5.1697345935       13.8740417531       17.5828768025
  C         5.4372641200       12.5561693295       17.3120070023
  N        17.5364281295       19.7313469358        6.7546705881
  C        17.2639654532       21.0485132882        6.4850430988
  N        17.5392437536        8.9088428143       17.5780790571
  C        17.2710740643       10.2265701097       17.3070949520
  N         5.1725215788       19.7372712894       16.0270181373
  C         5.4410511065       21.0550053539       16.2976762203
  N         5.1509813570        8.9181770118        5.2115598724
  C         5.4193844730       10.2357169401        5.4845103002
  N        17.5393263147        3.0467640445       16.0172459687
  C        17.2705804983        1.7289117850       16.2871952588
  N        17.5388128379       13.8648704974        5.1999902196
  C        17.2669550829       12.5475069799        5.4693910750
  N         3.0172406350       16.0284150577       17.5846529348
  C         1.6993081741       16.2968192959       17.3125842749
  N        13.8311566943       16.0191253698        6.7564433191
  C        12.5131457197       16.2899663165        6.4873442896
  N        19.6940538518       16.0205612634        5.2003536326
  C        21.0114241554       16.2924747333        5.4717105973
  N         8.8783289466       16.0246532105       16.0246524286
  C        10.1967335734       16.2938802834       16.2938789693
  N        19.6912535149        6.7560979116       17.5776598462
  C        21.0094400967        6.4873563560       17.3083835537
  N         8.8659964584        6.7645055832        6.7645038953
  C        10.1833773910        6.4930752960        6.4930752920
  N         3.0011498458        6.7636529350        5.2079115483
  C         1.6834050156        6.4920998385        5.4764508876
  N        13.8311630535        6.7564417362       16.0191262270
  C        12.5131276103        6.4873438536       16.2899630728
  N        15.9817609080        5.1981276150       19.7291786498
  C        16.2486550508        5.4690865192       21.0472232808
  N        15.9859084859       16.0202894722        8.9096717362
  C        16.2566655452       16.2902385801       10.2271393224
  N        15.9848459992       17.5741471601        3.0454007110
  C        16.2558112616       17.3037427715        1.7280211979
  N        15.9845589745        6.7569391589       13.8662001809
  C        16.2522379381        6.4859466134       12.5483772500
  N         6.7101613972        5.2087836788        3.0560783457
  C         6.4411429243        5.4784012086        1.7380943602
  N         6.7231161385       16.0256343244       13.8727710393
  C         6.4517916652       16.2953500106       12.5553419146
  N         6.7267036265       17.5841776391       19.7382316063
  C         6.4557462773       17.3143214543       21.0557359542
  N         6.7057638466        6.7687603333        8.9174364672
  C         6.4338351308        6.5014720038       10.2349959291
  N        19.6912598955       17.5776583469        6.7561017974
  C        21.0094287847       17.3083811282        6.4873576431
  N         8.8808666443       17.5811113324       17.5811097635
  C        10.1984226770       17.3096852447       17.3096832178
  N         3.0011538596        5.2079150892        6.7636463042
  C         1.6834071173        5.4764492972        6.4920990915
  N        13.8305415455        5.1999381081       17.5751237324
  C        12.5127927272        5.4717596765       17.3059045059
  N         3.0172510976       17.5846454304       16.0284251148
  C         1.6993092704       17.3125831757       16.2968218675
  N        13.8305348962       17.5751266084        5.1999365612
  C        12.5128092414       17.3059040966        5.4717640771
  N        19.6940386632        5.2003548981       16.0205664803
  C        21.0114336828        5.4717061571       16.2924729791
  N         8.8631415819        5.2084491999        5.2084521288
  C        10.1812892283        5.4773733543        5.4773763801
  N         6.7267022064       19.7382312797       17.5841798705
  C         6.4557463141       21.0557426475       17.3143244962
  N         6.7057632840        8.9174403462        6.7687616018
  C         6.4338317403       10.2349898637        6.5014717864
  N         6.7101608854        3.0560735842        5.2087797799
  C         6.4411413022        1.7381002604        5.4784010605
  N         6.7231142086       13.8727787791       16.0256353916
  C         6.4517924234       12.5553357096       16.2953477652
  N        15.9848359959        3.0454003257       17.5741474469
  C        16.2558050159        1.7280123931       17.3037442168
  N        15.9845666785       13.8661963754        6.7569436533
  C        16.2522414556       12.5483846956        6.4859465805
  N        15.9817580489       19.7291899237        5.1981213270
  C        16.2486571704       21.0472183701        5.4690894606
  N        15.9859154087        8.9096547944       16.0202964656
  C        16.2566687548       10.2271408845       16.2902342618
  N        17.5364243690        6.7546682926       19.7313433758
  C        17.2639638964        6.4850388358       21.0485211241
  N        17.5392444851       17.5780788994        8.9088495336
  C        17.2710714117       17.3070991914       10.2265672241
  N         5.1554050736        6.7654025670        3.0546793071
  C         5.4260636103        6.4946193991        1.7370499024
  N         5.1697390550       17.5828724637       13.8740426826
  C         5.4372664317       17.3120054035       12.5561766958
  N        17.5393418070       16.0172385763        3.0467520674
  C        17.2705857542       16.2871939568        1.7289189746
  N        17.5388029045        5.1999959352       13.8648824623
  C        17.2669544970        5.4693930667       12.5475018835
  N         5.1725233864       16.0270229206       19.7372722875
  C         5.4410530397       16.2976795577       21.0549977928
  N         5.1509778576        5.2115563222        8.9181773648
  C         5.4193832563        5.4845071423       10.2357229236
  N        17.5447557758       19.7304812230       16.0175592807
  C        17.2735494723       21.0479192480       16.2872961582
  N        17.5322099330        8.9087388350        5.1984335292
  C        17.2636214331       10.2265230676        5.4687874702
  N         5.1673532068        3.0534496580       16.0281583833
  C         5.4383277340        1.7360081092       16.2982513992
  N         5.1592233331       13.8749008254        5.2098928954
  C         5.4233870977       12.5568779400        5.4837809079
  N        17.5295316020        3.0471715175        6.7548274832
  C        17.2602377624        1.7294561149        6.4849485053
  N        17.5449047198       13.8649607501       17.5758485676
  C        17.2739097570       12.5475034775       17.3060721073
  N         5.1621468679       19.7376382928        6.7653382378
  C         5.4296107909       21.0556268344        6.4944033377
  N         5.1640326499        8.9177890484       17.5829551528
  C         5.4345636232       10.2351936618       17.3121797174
  N        19.6845522183        6.7560579986        5.1998775827
  C        21.0021186894        6.4883868173        5.4726656564
  N         8.8730326596        6.7616534343       16.0226656499
  C        10.1909166080        6.4898601092       16.2916605112
  N         3.0086503884        6.7623282412       17.5826755597
  C         1.6913227790        6.4905380944       17.3112705926
  N        13.8236553640        6.7584300840        6.7584289269
  C        12.5051606743        6.4899403076        6.4899404974
  N         3.0119566392       16.0283855364        5.2043825210
  C         1.6935132226       16.2963820044        5.4739643875
  N        13.8367485400       16.0203069547       16.0203084114
  C        12.5191797653       16.2916146732       16.2916142193
  N        19.6991034935       16.0202315172       17.5767898135
  C        21.0169995825       16.2929004302       17.3087158520
  N         8.8730182942       16.0226732987        6.7616483952
  C        10.1909337386       16.2916625966        6.4898629898
  N         6.7202962072       17.5859821790        3.0548910357
  C         6.4525855120       17.3152044057        1.7368823113
  N         6.7112385547        6.7686017533       13.8729381523
  C         6.4368569679        6.5014771785       12.5557211136
  N         6.7177505196        5.2092953395       19.7394735786
  C         6.4449893810        5.4784316049       21.0568234968
  N         6.7197426760       16.0268179828        8.9166487800
  C         6.4498692305       16.2960750129       10.2343787175
  N        15.9918695763       17.5755604839       19.7293571542
  C        16.2593565839       17.3043177142       21.0471003205
  N        15.9784876525        6.7561442657        8.9098579078
  C        16.2491443372        6.4856092531       10.2273217912
  N        15.9726299497        5.1997075091        3.0461756409
  C        16.2441435539        5.4696341797        1.7285802120
  N        15.9906944005       16.0188775908       13.8657912105
  C        16.2591640104       16.2895391938       12.5480708873
 Zn        14.7001078600       14.7254327214       14.7254348274
 Br        13.3811541939       13.4131827846       13.4131825779
 Zn        14.6766430095        3.9068440230        3.9068458828
 Br        13.3614414329        2.5932306412        2.5932328727
 Zn         3.8757859740       14.7347350153        3.9098836411
 Br         2.5579460528       13.4222438627        2.5965840411
 Zn         3.8757909592        3.9098882153       14.7347388593
 Br         2.5579492931        2.5965887612       13.4222479220
 Zn         8.0091111228        8.0563224134       14.7297598688
 Br         9.3227197435        9.3707729447       13.4146367171
 Zn         8.0105472648       18.8783432694        3.9169003585
 Br         9.3263232770       20.1926232733        2.6031853201
 Zn        18.8240120252        8.0491473704        3.9041972180
 Br        20.1395573787        9.3617761431        2.5895962011
 Zn        18.8353826390       18.8703836904       14.7242635628
 Br        20.1523364336       20.1829237408       13.4103220785
 Zn         8.0091147683       14.7297561888        8.0563240107
 Br         9.3227235769       13.4146341542        9.3707753852
 Zn         8.0105431136        3.9169064721       18.8783431991
 Br         9.3263188789        2.6031915514       20.1926199485
 Zn        18.8353813628       14.7242626273       18.8703834654
 Br        20.1523370528       13.4103221362       20.1829220312
 Zn        18.8240148722        3.9041963984        8.0491490835
 Br        20.1395564892        2.5895955518        9.3617796689
 Zn        14.6867044509        8.0519327656        8.0519313904
 Br        13.3727117268        9.3665207009        9.3665203363
 Zn        14.7033251729       18.8708710723       18.8708747133
 Br        13.3874541976       20.1847187897       20.1847216344
 Zn         3.8700280987        8.0573036280       18.8753313936
 Br         2.5554916829        9.3729034387       20.1886375030
 Zn         3.8700240897       18.8753358093        8.0573067175
 Br         2.5554874519       20.1886418731        9.3729065142
 Zn        14.6948280106       14.7257052594        8.0515846080
 Br        13.3776392026       13.4136827203        9.3658842413
 Zn        14.6924606121        3.9036830936       18.8684286004
 Br        13.3759289193        2.5895196083       20.1810651370
 Zn         3.8816166160       14.7335045883       18.8770331237
 Br         2.5646306735       13.4213037067       20.1917056304
 Zn         3.8600100077        3.9140349888        8.0573317816
 Br         2.5469419681        2.6001739677        9.3733347409
 Zn         8.0034702110        8.0576208253        8.0576175950
 Br         9.3149744257        9.3733733964        9.3733732151
 Zn         8.0181781672       18.8758500029       18.8758524691
 Br         9.3362421199       20.1887070624       20.1887041271
 Zn        18.8288316391        8.0490974701       18.8732684719
 Br        20.1450091736        9.3620073184       20.1873577227
 Zn        18.8288350764       18.8732671120        8.0490983859
 Br        20.1450092995       20.1873562465        9.3620089754
 Zn        14.6948186968        8.0515848587       14.7257030133
 Br        13.3776329043        9.3658861516       13.4136791372
 Zn        14.6924697620       18.8684250139        3.9036868697
 Br        13.3759373061       20.1810604644        2.5895260991
 Zn         3.8600068600        8.0573308256        3.9140358247
 Br         2.5469412145        9.3733347048        2.6001744483
 Zn         3.8816169077       18.8770355605       14.7335033442
 Br         2.5646300071       20.1917064475       13.4213045656
 Zn         8.0132534560       14.7304541689       14.7304530812
 Br         9.3274831558       13.4158670941       13.4158658616
 Zn         8.0027063772        3.9144869856        3.9144875689
 Br         9.3167146547        2.5999634517        2.5999635273
 Zn        18.8313553278       14.7242321063        3.9068230084
 Br        20.1476730396       13.4103214715        2.5938335516
 Zn        18.8313568856        3.9068187077       14.7242293363
 Br        20.1476734083        2.5938281019       13.4103184798
 Zn         5.9444821655        5.9906677174       16.8103622691
 Zn        16.7696640237       16.7964924474       16.7964974212
 Zn        16.7572599600        5.9765154460        5.9765198677
 Zn         5.9444811878       16.8103592280        5.9906668526
 Zn         5.9362185382        5.9916435838        5.9916416528
 Zn        16.7648014010       16.7974577611        5.9766101351
 Zn         5.9497479000       16.8096612981       16.8096586359
 Zn        16.7648003819        5.9766034257       16.7974557212
  N         3.7569806844        5.9839361273       16.8063659939
  N        14.5686067199        5.9796267793        5.9796275581
  N        18.9526628044       16.7972823879       16.7972720946
  N         8.1265066748       16.8034026072        5.9860534674
  N        18.9379915096        5.9765566106        5.9765705118
  N         8.1264899749        5.9860470317       16.8034071897
  N         3.7569704310       16.8063678648        5.9839362053
  N        14.5844063827       16.7980340693       16.7980360200
  N        16.7507412133        3.7932886741        5.9773453923
  N        16.7684033427       14.6122074776       16.7971376813
  N        16.7692262324       18.9829407701       16.7970162626
  N        16.7548947074        8.1624588211        5.9773490863
  N         5.9414549879       18.9919232295        5.9879626279
  N         5.9418505111        8.1706912891       16.8053329291
  N         5.9429499405        3.8012066469       16.8072917345
  N         5.9381315899       14.6210133706        5.9872385858
  N         5.9429449295       16.8072823669        3.8011990365
  N         5.9381333380        5.9872420847       14.6210197787
  N        16.7692137125       16.7970132108       18.9829491942
  N        16.7549045891        5.9773456324        8.1624528322
  N         5.9414614475        5.9879572669       18.9919161699
  N         5.9418480151       16.8053363954        8.1706983141
  N        16.7507343850        5.9773352865        3.7932946897
  N        16.7684064290       16.7971448659       14.6122056031
  N         5.9325459643        3.8022930089        5.9873785503
  N         5.9474548655       14.6204780509       16.8047228788
  N        16.7606166854       18.9833548003        5.9759676319
  N        16.7619622204        8.1623776982       16.7994347786
  N         5.9501656772       18.9911022470       16.8054365962
  N         5.9296324693        8.1713576836        5.9886469984
  N        16.7615940877        3.7928114715       16.7958308042
  N        16.7627394621       14.6123941987        5.9789505206
  N         3.7638212850       16.8074975021       16.8074845207
  N        14.5775050016       16.7967288984        5.9775160942
  N        18.9461950923       16.7985078531        5.9775896056
  N         8.1331947472       16.8034786131       16.8034778217
  N        18.9462047042        5.9775768555       16.7985003801
  N         8.1179990406        5.9870759058        5.9870760799
  N         3.7479691372        5.9866186374        5.9866204602
  N        14.5774882835        5.9775149621       16.7967304553
  N        16.7606080899        5.9759553482       18.9833607904
  N        16.7619685895       16.7994478630        8.1623761159
  N        16.7615890425       16.7958331545        3.7928195832
  N        16.7627430104        5.9789475008       14.6123880654
  N         5.9325452485        5.9873786188        3.8022864510
  N         5.9474485808       16.8047290760       14.6204846662
  N         5.9501687426       16.8054393564       18.9910955239
  N         5.9296355077        5.9886498899        8.1713632991
  C        11.3569035991       15.7433387756       15.7433381611
  H        11.3553621459       14.9678308310       14.9678311907
  C        11.3406396008        4.9261851379        4.9261902748
  H        11.3382996383        4.1506755945        4.1506827542
  C         0.5339115928       15.7450392940        4.9232217554
  H         0.5362589875       14.9697285084        4.1475347368
  C         0.5339110653        4.9232195948       15.7450378379
  H         0.5362643671        4.1475354806       14.9697288375
  C        11.3521951640        7.0376100220       15.7408817866
  H        11.3524605674        7.8128026616       14.9650722224
  C        11.3515975132       17.8570868274        4.9243677692
  H        11.3512218775       18.6332168552        4.1494718899
  C         0.5228427534        7.0401987249        4.9251016283
  H         0.5228754396        7.8159000071        4.1498037209
  C         0.5381911292       17.8601806085       15.7455404074
  H         0.5382647730       18.6358223636       14.9701647250
  C        11.3521971789       15.7408821062        7.0376146138
  H        11.3524678943       14.9650738758        7.8128059763
  C        11.3515980372        4.9243650648       17.8570840854
  H        11.3512137893        4.1494682803       18.6332152393
  C         0.5381932570       15.7455429433       17.8601762733
  H         0.5382663386       14.9701634640       18.6358208945
  C         0.5228460231        4.9250956344        7.0401986603
  H         0.5228780448        4.1497977504        7.8158953217
  C        11.3456885685        7.0411253751        7.0411239031
  H        11.3479260905        7.8166114578        7.8166076858
  C        11.3605915018       17.8579456607       17.8579436824
  H        11.3622132017       18.6334551156       18.6334530095
  C         0.5290419872        7.0387114946       17.8591044089
  H         0.5267104853        7.8145002907       18.6343425429
  C         0.5290471991       17.8591065787        7.0387165660
  H         0.5267111826       18.6343405807        7.8145023955
  C        15.7086380908       11.3880148047       15.7395353207
  H        14.9337025317       11.3886975359       14.9634157291
  C        15.6964940572        0.5670286611        4.9198113358
  H        14.9209653286        0.5654600257        4.1443043498
  C         4.8717099239       11.3970478795        4.9342165390
  H         4.0977789068       11.3982402148        4.1571499058
  C         4.8903995469        0.5750379485       15.7476537206
  H         4.1153295005        0.5741053659       14.9716554663
  C        15.7013185636       11.3884632594        7.0359843593
  H        14.9265387853       11.3894881158        7.8122471375
  C        15.7082173377        0.5668914249       17.8542679898
  H        14.9333672975        0.5656921234       18.6304789239
  C         4.8863382490       11.3963579153       17.8621236302
  H         4.1114446290       11.3974018319       18.6382699801
  C         4.8782309800        0.5755289284        7.0443083207
  H         4.1032881610        0.5739892745        7.8203688947
  C         7.0000825089       11.3942689677       15.7453564116
  H         7.7752578081       11.3932964158       14.9694819600
  C         6.9923353723        0.5783599807        4.9282360728
  H         7.7676216146        0.5797126200        4.1525112818
  C        17.8144588364       11.3863733835        4.9187183046
  H        18.5894554648       11.3854479463        4.1426866618
  C        17.8212394411        0.5690782469       15.7368142988
  H        18.5962063059        0.5701708760       14.9607363980
  C         6.9831119258       11.3946611682        7.0533429783
  H         7.7575643201       11.3934909059        7.8298756384
  C         7.0034061155        0.5768683244       17.8650601124
  H         7.7782820200        0.5777412121       18.6412114751
  C        17.8219133043       11.3866100120       17.8567600549
  H        18.5970747849       11.3859677170       18.6326488270
  C        17.8118240789        0.5698641981        7.0347784288
  H        18.5876590718        0.5712462167        7.8099718821
  C        15.7086392295       15.7395450997       11.3880173456
  H        14.9336990372       14.9634209496       11.3886966082
  C        15.6964870870        4.9198039387        0.5670297833
  H        14.9209616442        4.1443022953        0.5654656351
  C         4.8903934534       15.7476510627        0.5750362367
  H         4.1153244757       14.9716571342        0.5741014270
  C         4.8717152652        4.9342199090       11.3970461794
  H         4.0977816349        4.1571515336       11.3982412114
  C         7.0000860319       15.7453556912       11.3942671369
  H         7.7752601525       14.9694840976       11.3932981560
  C         6.9923342818        4.9282421472        0.5783646464
  H         7.7676250437        4.1525175171        0.5797126839
  C        17.8212374922       15.7368174966        0.5690802390
  H        18.5962076540       14.9607353173        0.5701744467
  C        17.8144662193        4.9187179007       11.3863744336
  H        18.5894606849        4.1426922610       11.3854459708
  C        15.7013162799        7.0359847623       11.3884625123
  H        14.9265359447        7.8122460911       11.3894842428
  C        15.7082208586       17.8542659493        0.5668935647
  H        14.9333697040       18.6304769990        0.5656984346
  C         4.8782305382        7.0442988886        0.5755304835
  H         4.1032793672        7.8203617687        0.5739877783
  C         4.8863328565       17.8621292107       11.3963538087
  H         4.1114434637       18.6382704229       11.3974016628
  C         6.9831117754        7.0533384578       11.3946581190
  H         7.7575688876        7.8298742369       11.3934912243
  C         7.0034123441       17.8650598016        0.5768726295
  H         7.7782859444       18.6412055299        0.5777415575
  C        17.8118248314        7.0347741436        0.5698655873
  H        18.5876600863        7.8099657305        0.5712479222
  C        17.8219103427       17.8567638862       11.3866140429
  H        18.5970731118       18.6326522919       11.3859702215
 Kr         4.1206077465       10.3413971723       10.3413969964
