     409
 i =     176, E =    -5136.7149579885
  N         2.9831743326        5.2192843180       16.0051585491
  C         1.6643905324        5.4839084756       16.2737512995
  N        13.8079307806        5.1658925800        5.1659011043
  C        12.4894225194        5.4348647324        5.4348798705
  N        19.6494817557       17.5581587359       16.0027465383
  C        20.9673449294       17.2953967680       16.2797288813
  N         8.8392530116       17.5805278749        5.2086010550
  C        10.1578708271       17.3005554592        5.4662978441
  N        19.6725941133        5.1897488238        6.7448878186
  C        20.9901943542        5.4675725937        6.4831935382
  N         8.8392590669        5.2085912379       17.5805376409
  C        10.1578766840        5.4662849727       17.3005629984
  N         2.9762689707       17.5630305311        6.7727569178
  C         1.6595951569       17.2904182573        6.4986374367
  N        13.7898744927       17.5798441697       17.5798471985
  C        12.4695335793       17.3154450226       17.3154485211
  N        15.9730907586        3.0214677695        5.1731415587
  C        16.2409662055        1.7040794901        5.4468280664
  N        15.9178115538       13.8558599721       16.0119963573
  C        16.1903036908       12.5376229923       16.2792089390
  N        15.9527771285       19.7216505783       17.5684778607
  C        16.2254512891       21.0380064353       17.2950291554
  N        15.9550188628        8.8835760555        6.7270751783
  C        16.2261314886       10.2022043254        6.4608144930
  N         6.6706977967       19.7223538769        5.2012460776
  C         6.3988307148       21.0401684936        5.4670833593
  N         6.6926317418        8.9250824249       16.0211639275
  C         6.4165803941       10.2420706263       16.2908780257
  N         6.6833989845        3.0623907569       17.5643281550
  C         6.4102539977        1.7448886848       17.2977656470
  N         6.6996343674       13.8547356071        6.7858232945
  C         6.4331513220       12.5372986054        6.5099621121
  N         5.1352581348       16.0015162281        3.0626036066
  C         5.3994838179       16.2772402872        1.7443466041
  N         5.1416293962        5.2323203909       13.8579208486
  C         5.4154537583        5.4963113634       12.5402828478
  N        17.5014294535       16.0061165775       19.7150618122
  C        17.2373426846       16.2756107232       21.0341747920
  N        17.5126409389        5.1732201750        8.8866347673
  C        17.2427962805        5.4460102093       10.2039524490
  N         5.1218739434        6.7626763189       19.7246789185
  C         5.3878686027        6.4873404279       21.0422671296
  N         5.1334144389       17.5747624137        8.9199047022
  C         5.3991747745       17.3052057506       10.2383193010
  N        17.5261128962        6.7320064250        3.0228879228
  C        17.2540501964        6.4652620581        1.7045794814
  N        17.4852138277       17.5564345028       13.8549817504
  C        17.2134948489       17.2874094571       12.5377282366
  N         5.1236871896        3.0417672796        6.7523001611
  C         5.3889551887        1.7233026611        6.4821958348
  N         5.1202028796       13.8756558433       17.5847329006
  C         5.3916707516       12.5591969732       17.3103838421
  N        17.5091149989       19.7047083637        6.7491732329
  C        17.2457960774       21.0226914568        6.4735640172
  N        17.4955912307        8.9003904520       17.5493277166
  C        17.2183496938       10.2171519323       17.2838340649
  N         5.1189515446       19.7440736906       16.0256090549
  C         5.3919430938       21.0623636675       16.2900603705
  N         5.1525121408        8.9043193743        5.1994328730
  C         5.4210670465       10.2201188461        5.4792843834
  N        17.5158701984        3.0331296914       16.0007991929
  C        17.2439722556        1.7158225598       16.2725305920
  N        17.5172080324       13.8440480097        5.1845961399
  C        17.2458439268       12.5258273052        5.4518721349
  N         2.9669777628       16.0284531290       17.5849081895
  C         1.6491427281       16.2924083966       17.3082344196
  N        13.7972239601       15.9852215698        6.7219054437
  C        12.4800077910       16.2620842702        6.4578867493
  N        19.6671300025       15.9999401897        5.1968750040
  C        20.9833953939       16.2706822001        5.4731535454
  N         8.8232045933       16.0416303318       16.0416328740
  C        10.1415617740       16.3087107339       16.3087150222
  N        19.6591143726        6.7555567140       17.5524360737
  C        20.9781504179        6.4898917904       17.2851807920
  N         8.8544003878        6.7249164942        6.7249228650
  C        10.1702780629        6.4518275444        6.4518450679
  N         2.9879833388        6.7652551248        5.2091626422
  C         1.6707060183        6.4929771248        5.4772623263
  N        13.7972286280        6.7218933530       15.9852244948
  C        12.4800125953        6.4578718020       16.2620883090
  N        15.9594169833        5.1873626064       19.7059781755
  C        16.2340601632        5.4540679639       21.0231296448
  N        15.9311578679       16.0033327358        8.8963205141
  C        16.1961054343       16.2748222285       10.2153575772
  N        15.9598942116       17.5568021742        3.0366600831
  C        16.2293460111       17.2893398996        1.7187307600
  N        15.9607549959        6.7401501159       13.8415630663
  C        16.2297736210        6.4672266576       12.5241341029
  N         6.6699475631        5.1870625220        3.0362154903
  C         6.3986475153        5.4606798070        1.7201361482
  N         6.6767190372       16.0311398627       13.8821173840
  C         6.4081672823       16.2958248257       12.5634453557
  N         6.6671100422       17.5892378492       19.7467938690
  C         6.4026024646       17.3107524162       21.0638762893
  N         6.7148271056        6.7483378914        8.8959867179
  C         6.4405629910        6.4912554832       10.2153515439
  N        19.6591052964       17.5524283252        6.7555583489
  C        20.9781435094       17.2851789624        6.4898934484
  N         8.8295514334       17.5971283937       17.5971260610
  C        10.1468946513       17.3243996644       17.3244008442
  N         2.9879939925        5.2091796079        6.7652501486
  C         1.6707043688        5.4772655331        6.4929808684
  N        13.7979360244        5.1830771791       17.5572009005
  C        12.4799190115        5.4535427584       17.2887155671
  N         2.9669805973       17.5849046783       16.0284545553
  C         1.6491415692       17.3082357807       16.2924060343
  N        13.7979279249       17.5571932220        5.1830837385
  C        12.4799142821       17.2887080889        5.4535548566
  N        19.6671321536        5.1968751624       15.9999462844
  C        20.9834061610        5.4731521315       16.2706812888
  N         8.8472697302        5.1696836730        5.1696784079
  C        10.1669480741        5.4362087004        5.4362169008
  N         6.6671071596       19.7467985864       17.5892357970
  C         6.4025972999       21.0638754148       17.3107485560
  N         6.7148106485        8.8959852847        6.7482880691
  C         6.4405471701       10.2153600801        6.4912150056
  N         6.6699556739        3.0362149178        5.1870669502
  C         6.3986491093        1.7201483136        5.4606913741
  N         6.6767175415       13.8821230574       16.0311348114
  C         6.4081670858       12.5634441067       16.2958202823
  N        15.9598962662        3.0366545241       17.5568131121
  C        16.2293492742        1.7187282570       17.2893455174
  N        15.9607495370       13.8415589160        6.7401505817
  C        16.2297638502       12.5241236552        6.4672301216
  N        15.9594076226       19.7059759800        5.1873646228
  C        16.2340550330       21.0231192454        5.4540738219
  N        15.9311603404        8.8963118126       16.0033444431
  C        16.1961052698       10.2153540254       16.2748298273
  N        17.5091234497        6.7491724790       19.7047152546
  C        17.2458022371        6.4735611314       21.0227005754
  N        17.4955848584       17.5493196534        8.9003943490
  C        17.2183471081       17.2838278973       10.2171551848
  N         5.1236742920        6.7522915212        3.0417572060
  C         5.3889473952        6.4821857477        1.7232932894
  N         5.1202043524       17.5847365780       13.8756493131
  C         5.3916743895       17.3103849890       12.5591948232
  N        17.5158683077       16.0007882330        3.0331312433
  C        17.2439700534       16.2725238932        1.7158257756
  N        17.5172092543        5.1845930260       13.8440565097
  C        17.2458485314        5.4518683942       12.5258355513
  N         5.1189519447       16.0256129482       19.7440712737
  C         5.3919449428       16.2900644271       21.0623626015
  N         5.1525359052        5.1994748026        8.9043139274
  C         5.4210900850        5.4793239772       10.2201128061
  N        17.5014293635       19.7150587146       16.0061179161
  C        17.2373428085       21.0341717524       16.2756136789
  N        17.5126340513        8.8866266873        5.1732298151
  C        17.2427893245       10.2039431256        5.4460162104
  N         5.1352597205        3.0626074374       16.0015046595
  C         5.3994817488        1.7443477890       16.2772307607
  N         5.1416068522       13.8579255773        5.2322994775
  C         5.4154320211       12.5402892093        5.4962845225
  N        17.5261160840        3.0228812562        6.7320145860
  C        17.2540499810        1.7045693659        6.4652691303
  N        17.4852148263       13.8549773319       17.5564370397
  C        17.2134956054       12.5377259632       17.2874130138
  N         5.1218736823       19.7246836248        6.7626843037
  C         5.3878699878       21.0422747885        6.4873499522
  N         5.1334190781        8.9199088626       17.5747655834
  C         5.3991756094       10.2383216421       17.3052072910
  N        19.6725903064        6.7448790305        5.1897530592
  C        20.9901957857        6.4831871603        5.4675751116
  N         8.8421180897        6.7515331605       16.0117548022
  C        10.1592733737        6.4723316563       16.2751750211
  N         2.9762786982        6.7727562584       17.5630178734
  C         1.6596027437        6.4986390477       17.2904127250
  N        13.8073827475        6.7211270139        6.7211518200
  C        12.4901917361        6.4504864573        6.4505128823
  N         2.9831719739       16.0051766990        5.2192799170
  C         1.6643810412       16.2737594463        5.4839037325
  N        13.7771190162       16.0236570460       16.0236636452
  C        12.4620251986       16.2997656580       16.2997717826
  N        19.6494818084       16.0027466714       17.5581592662
  C        20.9673462115       16.2797286195       17.2953975089
  N         8.8421098765       16.0117451645        6.7515427581
  C        10.1592681974       16.2751686525        6.4723455207
  N         6.6834013503       17.5643337358        3.0623870622
  C         6.4102554633       17.2977686702        1.7448905599
  N         6.6996557369        6.7858491949       13.8547378935
  C         6.4331742574        6.5099950251       12.5372929806
  N         6.6706983793        5.2012382179       19.7223535801
  C         6.3988278061        5.4670768600       21.0401577845
  N         6.6926233033       16.0211565569        8.9250745208
  C         6.4165792372       16.2908728085       10.2420710336
  N        15.9527772730       17.5684761658       19.7216545715
  C        16.2254514518       17.2950258656       21.0380092985
  N        15.9550318856        6.7270721292        8.8835811229
  C        16.2261407455        6.4608137802       10.2022137982
  N        15.9730902081        5.1731322188        3.0214695731
  C        16.2409710574        5.4468230373        1.7040888278
  N        15.9178116455       16.0119920029       13.8558665335
  C        16.1903020716       16.2792021928       12.5376257722
 Zn        14.6219435196       14.7235707237       14.7235752490
 Br        13.3120992204       13.4075632587       13.4075690206
 Zn        14.6773279968        3.8798923481        3.8798972204
 Br        13.3670599884        2.5627320897        2.5627360538
 Zn         3.8473836288       14.7116287980        3.9352652657
 Br         2.5413926431       13.3884903711        2.6202062104
 Zn         3.8473973053        3.9352827168       14.7116182876
 Br         2.5414124765        2.6202274577       13.3884680092
 Zn         7.9948888824        8.0649695899       14.7301664256
 Br         9.3469907905        9.3886095088       13.4639599987
 Zn         7.9685217097       18.8681129102        3.9138164777
 Br         9.2840916713       20.1791044802        2.5970910239
 Zn        18.8149862116        8.0261290065        3.8889237505
 Br        20.1272723699        9.3449140775        2.5757727741
 Zn        18.7828614792       18.8449790333       14.7110661895
 Br        20.0994577155       20.1572627143       13.3947129297
 Zn         7.9948699197       14.7301442076        8.0649620107
 Br         9.3469312977       13.4638834354        9.3885897238
 Zn         7.9685215211        3.9138044233       18.8681143086
 Br         9.2840851190        2.5970777791       20.1791095620
 Zn        18.7828632573       14.7110649527       18.8449821844
 Br        20.0994605088       13.3947125363       20.1572650498
 Zn        18.8149862491        3.8889172239        8.0261355462
 Br        20.1272783266        2.5757647217        9.3449154982
 Zn        14.6630317876        8.0142861059        8.0142940219
 Br        13.3529103254        9.3312154301        9.3312344664
 Zn        14.6629212873       18.8699898678       18.8699927268
 Br        13.3566984734       20.1883390482       20.1883419618
 Zn         3.8365421252        8.0596267842       18.8653819648
 Br         2.5165966694        9.3686281720       20.1798477331
 Zn         3.8365402948       18.8653806506        8.0596262781
 Br         2.5165988691       20.1798499663        9.3686318868
 Zn        14.6579215855       14.7023522879        8.0216198393
 Br        13.3535903435       13.3791447339        9.3388608259
 Zn        14.6640062762        3.8953273588       18.8474295416
 Br        13.3507956882        2.5830400341       20.1657703509
 Zn         3.8298299886       14.7329728917       18.8787894437
 Br         2.5139035953       13.4190236932       20.1928628539
 Zn         3.8465919237        3.9099362060        8.0553391178
 Br         2.5317675988        2.6021689150        9.3746800777
 Zn         8.0127427569        8.0216438700        8.0216061858
 Br         9.3620325270        9.3200908917        9.3199403021
 Zn         7.9572405688       18.8856265659       18.8856231628
 Br         9.2709190679       20.2009095206       20.2009066677
 Zn        18.7909646876        8.0498291472       18.8385311049
 Br        20.1057194062        9.3632871380       20.1548685149
 Zn        18.7909590539       18.8385273943        8.0498334350
 Br        20.1057154265       20.1548634249        9.3632890284
 Zn        14.6579235942        8.0216104221       14.7023601597
 Br        13.3536003221        9.3388538983       13.3791476409
 Zn        14.6640009501       18.8474165298        3.8953319668
 Br        13.3507916260       20.1657595626        2.5830455733
 Zn         3.8465781667        8.0553302446        3.9099099163
 Br         2.5317405050        9.3746562054        2.6021376579
 Zn         3.8298293492       18.8787913757       14.7329653836
 Br         2.5139010997       20.1928663971       13.4190217929
 Zn         7.9685078017       14.7489039267       14.7489008345
 Br         9.3118777526       13.4480544951       13.4480339576
 Zn         7.9612155502        3.8876592044        3.8876586824
 Br         9.2603748175        2.5650237051        2.5650267850
 Zn        18.8134134550       14.7119550988        3.8962764788
 Br        20.1299518421       13.4016069274        2.5796910026
 Zn        18.8134193643        3.8962725265       14.7119605568
 Br        20.1299575353        2.5796862701       13.4016141816
 Zn         5.9084178626        5.9986585966       16.7872231259
 Zn        16.7144011344       16.7824234038       16.7824268717
 Zn        16.7392773113        5.9516395333        5.9516448444
 Zn         5.9084100134       16.7872230519        5.9986564994
 Zn         5.9139553199        5.9639061246        5.9638951340
 Zn        16.7276999956       16.7727333136        5.9610655809
 Zn         5.8950321377       16.8177688841       16.8177662787
 Zn        16.7277047331        5.9610615738       16.7727388113
  N         3.7263308079        5.9985166441       16.7849907405
  N        14.5544086601        5.9439318386        5.9439457694
  N        18.9025912065       16.7767553396       16.7767595795
  N         8.0941964732       16.8002254044        5.9861077404
  N        18.9257401573        5.9627443744        5.9627477478
  N         8.0942025455        5.9860989930       16.8002370839
  N         3.7263230158       16.7849910680        5.9984978292
  N        14.5301354287       16.7986621477       16.7986669347
  N        16.7504199070        3.7686440583        5.9509357543
  N        16.7016878543       14.6019328963       16.7846166127
  N        16.7248504940       18.9714216947       16.7880554950
  N        16.7336690028        8.1384436835        5.9486399380
  N         5.8982288329       18.9765357620        5.9848248090
  N         5.9154250631        8.1763401306       16.7982604331
  N         5.9116634229        3.8093569995       16.7809038234
  N         5.9190741060       14.6030816252        6.0114975278
  N         5.9116550569       16.7809068144        3.8093557221
  N         5.9190998120        6.0115146188       14.6030781279
  N        16.7248526830       16.7880526387       18.9714250368
  N        16.7336709346        5.9486403950        8.1384519729
  N         5.8982255151        5.9848218843       18.9765291530
  N         5.9154230496       16.7982447798        8.1763374979
  N        16.7504244105        5.9509341670        3.7686518319
  N        16.7016857257       16.7846119308       14.6019365116
  N         5.8988444666        3.7856237127        5.9687785533
  N         5.8981091765       14.6262010828       16.8106197521
  N        16.7311315742       18.9584969552        5.9704483914
  N        16.7170911765        8.1513559030       16.7745531275
  N         5.8907190887       18.9988673006       16.8110605210
  N         5.9354535226        8.1531421576        5.9677478155
  N        16.7383003209        3.7813965016       16.7776778625
  N        16.7391244215       14.5893948084        5.9636742329
  N         3.7133262647       16.8100207993       16.8100072016
  N        14.5444836201       16.7694031328        5.9512350934
  N        18.9161957545       16.7753798504        5.9734271398
  N         8.0796143511       16.8206452616       16.8206439911
  N        18.9162035760        5.9734155706       16.7753789603
  N         8.1038187529        5.9491733176        5.9491674670
  N         3.7345770987        5.9877513801        5.9877626380
  N        14.5444887019        5.9512230635       16.7694138065
  N        16.7311329035        5.9704393283       18.9585047579
  N        16.7170936630       16.7745503705        8.1513602933
  N        16.7382895897       16.7776735311        3.7813998413
  N        16.7391351397        5.9636639850       14.5894028709
  N         5.8988439404        5.9687598798        3.7856144978
  N         5.8981089986       16.8106256768       14.6261987895
  N         5.8907241736       16.8110677044       18.9988656083
  N         5.9354615358        5.9677807175        8.1531359834
  C        11.2978007118       15.7546612711       15.7546684553
  H        11.2906295686       14.9791366784       14.9791455906
  C        11.3276561301        4.8856505135        4.8856578021
  H        11.3272300086        4.1101237097        4.1101217232
  C         0.5071872230       15.7221800628        4.9289471671
  H         0.5120719581       14.9462735677        4.1537929167
  C         0.5071923278        4.9289506899       15.7221752830
  H         0.5120770743        4.1537974590       14.9462670870
  C        11.3198872524        7.0075679459       15.7118876135
  H        11.3197501808        7.7750725813       14.9284320934
  C        11.3185903510       17.8495503691        4.9155010887
  H        11.3187077547       18.6332496284        4.1483109125
  C         0.5102378117        7.0388040673        4.9233720537
  H         0.5100423700        7.8141828549        4.1476826434
  C         0.4882155404       17.8515133311       15.7366375305
  H         0.4879661684       18.6270152688       14.9611001137
  C        11.3198815430       15.7118843731        7.0075848025
  H        11.3197455547       14.9284302204        7.7750906416
  C        11.3185975129        4.9154896758       17.8495583273
  H        11.3187145508        4.1483014564       18.6332601537
  C         0.4882173426       15.7366388983       17.8515133322
  H         0.4879694997       14.9611019302       18.6270154781
  C         0.5102417278        4.9233754892        7.0388119261
  H         0.5100489641        4.1476897664        7.8141949838
  C        11.3311478589        7.0007763441        7.0008069996
  H        11.3315539431        7.7762905243        7.7763277495
  C        11.3123405374       17.8695722513       17.8695733530
  H        11.3187584484       18.6450726459       18.6450716103
  C         0.4957903095        7.0439117697       17.8375121051
  H         0.4907874479        7.8191145222       18.6132631798
  C         0.4957839641       17.8375130529        7.0439133692
  H         0.4907782128       18.6132619816        7.8191174348
  C        15.6391291537       11.3760326707       15.7319467151
  H        14.8587927685       11.3755448710       14.9613484955
  C        15.6902071088        0.5436807789        4.8984404106
  H        14.9175540250        0.5433911278        4.1201106750
  C         4.8668273688       11.3826868022        4.9399020351
  H         4.0895711851       11.3870715290        4.1661641898
  C         4.8488119365        0.5823612499       15.7312333891
  H         4.0767622275        0.5802873287       14.9523410519
  C        15.6780004357       11.3623662452        7.0133164523
  H        14.9020900436       11.3616370125        7.7884662113
  C        15.6793119210        0.5605680747       17.8435458437
  H        14.9057416116        0.5640401113       18.6210372398
  C         4.8444622463       11.3958114026       17.8564626159
  H         4.0682462588       11.3915442842       18.6313355910
  C         4.8406868730        0.5640020263        7.0368278651
  H         4.0690292322        0.5661368881        7.8161780581
  C         6.9622251663       11.4057716892       15.7437117569
  H         7.7403556501       11.4105185121       14.9709470227
  C         6.9449719261        0.5584063909        4.9103124658
  H         7.7163935703        0.5564793010        4.1306539633
  C        17.7940551599       11.3655016933        4.8995890236
  H        18.5697406542       11.3662992601        4.1243041936
  C        17.7891115295        0.5527499698       15.7230765284
  H        18.5624856443        0.5493942947       14.9454176439
  C         6.9881596494       11.3736684957        7.0491376769
  H         7.7675355917       11.3687169572        7.8207058093
  C         6.9535183189        0.5857471569       17.8565527770
  H         7.7253131482        0.5878457096       18.6358164488
  C        17.7692503780       11.3777039309       17.8318238081
  H        18.5505620430       11.3781334497       18.6016391202
  C        17.7979238067        0.5438379196        7.0208632475
  H        18.5704323560        0.5438262507        7.7993644956
  C        15.6391299077       15.7319392875       11.3760403933
  H        14.8587939499       14.9613398336       11.3755511515
  C        15.6902123572        4.8984336711        0.5436814585
  H        14.9175605029        4.1201033809        0.5433943586
  C         4.8488119428       15.7312398691        0.5823541663
  H         4.0767612037       14.9523497360        0.5802848743
  C         4.8668516218        4.9399349379       11.3826856622
  H         4.0895978136        4.1661942203       11.3870623937
  C         6.9622257931       15.7437104995       11.4057654408
  H         7.7403543417       14.9709448567       11.4105176065
  C         6.9449698983        4.9103049167        0.5584059229
  H         7.7163932608        4.1306468325        0.5564735862
  C        17.7891103229       15.7230721718        0.5527541406
  H        18.5624847390       14.9454132790        0.5493974210
  C        17.7940596432        4.8995821643       11.3655067413
  H        18.5697425612        4.1242951972       11.3663075602
  C        15.6780112597        7.0133170358       11.3623705138
  H        14.9021035373        7.7884686101       11.3616440094
  C        15.6793110569       17.8435412630        0.5605726877
  H        14.9057405998       18.6210332355        0.5640439310
  C         4.8406818392        7.0368168042        0.5639996549
  H         4.0690223554        7.8161661625        0.5661304797
  C         4.8444638315       17.8564641969       11.3958018029
  H         4.0682489410       18.6313368879       11.3915377986
  C         6.9881768325        7.0491769955       11.3736725398
  H         7.7675499016        7.8207476873       11.3687204780
  C         6.9535244006       17.8565555250        0.5857418994
  H         7.7253203810       18.6358165722        0.5878433207
  C        17.7979272044        7.0208597804        0.5438417880
  H        18.5704341564        7.7993617242        0.5438357317
  C        17.7692472946       17.8318190948       11.3777100256
  H        18.5505584543       18.6016360378       11.3781369256
 Kr         6.6292639693       11.3585958650       11.3587572797
